tox-1
  Cerius2 12190218263D 1   1.00000                          
 Structure written by MMmdl.
 48 52  0  0  0  0  0  0  0  0999 V2000
    0.6448    0.7398   -2.4307 C   0  0  0  0  0  0
    0.8928   -0.0582   -1.1156 C   0  0  0  0  0  0
    2.1848   -0.9264   -1.1848 C   0  0  0  0  0  0
    3.3936    0.0030   -1.4836 C   0  0  0  0  0  0
    3.1804    0.7793   -2.7908 C   0  0  0  0  0  0
    3.0359   -0.2022   -3.9572 C   0  0  0  0  0  0
    1.8287   -1.1122   -3.7145 C   0  0  0  0  0  0
    0.5527   -0.2645   -3.6126 C   0  0  0  0  0  0
    2.0297   -1.8869   -2.4026 C   0  0  0  0  0  0
    1.9032    1.6263   -2.6759 C   0  0  0  0  0  0
   -3.1024    2.9519   -2.1069 C   0  0  0  0  0  0
   -1.9185    3.6432   -2.3171 C   0  0  0  0  0  0
   -0.7102    2.9439   -2.4225 C   0  0  0  0  0  0
   -0.6658    1.5423   -2.3200 C   0  0  0  0  0  0
   -1.8891    0.8736   -2.1055 C   0  0  0  0  0  0
   -3.0984    1.5693   -1.9998 C   0  0  0  0  0  0
   -4.2579    3.6681   -2.0099 O   0  0  0  0  0  0
    2.8004   -2.9288    2.6427 C   0  0  0  0  0  0
    2.6418   -3.6888    1.4934 C   0  0  0  0  0  0
    2.4437   -3.0571    0.2598 C   0  0  0  0  0  0
    2.4013   -1.6556    0.1551 C   0  0  0  0  0  0
    2.5655   -0.9160    1.3448 C   0  0  0  0  0  0
    2.7637   -1.5440    2.5793 C   0  0  0  0  0  0
    2.9911   -3.5805    3.8245 O   0  0  0  0  0  0
    0.0415   -0.7153   -0.8916 H   0  0  0  0  0  0
    0.9450    0.6528   -0.2798 H   0  0  0  0  0  0
    4.3170   -0.5882   -1.5493 H   0  0  0  0  0  0
    3.5496    0.7244   -0.6719 H   0  0  0  0  0  0
    4.0399    1.4354   -2.9698 H   0  0  0  0  0  0
    3.9476   -0.8037   -4.0585 H   0  0  0  0  0  0
    2.9109    0.3464   -4.8988 H   0  0  0  0  0  0
    1.7313   -1.8195   -4.5461 H   0  0  0  0  0  0
    0.3897    0.2757   -4.5550 H   0  0  0  0  0  0
   -0.3046   -0.9389   -3.4946 H   0  0  0  0  0  0
    1.1733   -2.5582   -2.2539 H   0  0  0  0  0  0
    2.9196   -2.5226   -2.5030 H   0  0  0  0  0  0
    2.0295    2.3467   -1.8567 H   0  0  0  0  0  0
    1.7849    2.2101   -3.5986 H   0  0  0  0  0  0
   -1.9229    4.7279   -2.4007 H   0  0  0  0  0  0
    0.1897    3.5327   -2.5867 H   0  0  0  0  0  0
   -1.9195   -0.2119   -2.0161 H   0  0  0  0  0  0
   -4.0185    1.0137   -1.8345 H   0  0  0  0  0  0
   -4.9983    3.0410   -1.8637 H   0  0  0  0  0  0
    2.6704   -4.7751    1.5446 H   0  0  0  0  0  0
    2.3243   -3.6982   -0.6109 H   0  0  0  0  0  0
    2.5410    0.1733    1.3286 H   0  0  0  0  0  0
    2.8861   -0.9351    3.4719 H   0  0  0  0  0  0
    3.0848   -2.9103    4.5349 H   0  0  0  0  0  0
  1  2  1  0  0  0
  1  8  1  0  0  0
  1 10  1  0  0  0
  1 14  1  0  0  0
  2  3  1  0  0  0
  2 25  1  0  0  0
  2 26  1  0  0  0
  3  4  1  0  0  0
  3  9  1  0  0  0
  3 21  1  0  0  0
  4  5  1  0  0  0
  4 27  1  0  0  0
  4 28  1  0  0  0
  5  6  1  0  0  0
  5 10  1  0  0  0
  5 29  1  0  0  0
  6  7  1  0  0  0
  6 30  1  0  0  0
  6 31  1  0  0  0
  7  8  1  0  0  0
  7  9  1  0  0  0
  7 32  1  0  0  0
  8 33  1  0  0  0
  8 34  1  0  0  0
  9 35  1  0  0  0
  9 36  1  0  0  0
 10 37  1  0  0  0
 10 38  1  0  0  0
 11 12  2  0  0  0
 11 16  1  0  0  0
 11 17  1  0  0  0
 12 13  1  0  0  0
 12 39  1  0  0  0
 13 14  2  0  0  0
 13 40  1  0  0  0
 14 15  1  0  0  0
 15 16  2  0  0  0
 15 41  1  0  0  0
 16 42  1  0  0  0
 17 43  1  0  0  0
 18 19  2  0  0  0
 18 23  1  0  0  0
 18 24  1  0  0  0
 19 20  1  0  0  0
 19 44  1  0  0  0
 20 21  2  0  0  0
 20 45  1  0  0  0
 21 22  1  0  0  0
 22 23  2  0  0  0
 22 46  1  0  0  0
 23 47  1  0  0  0
 24 48  1  0  0  0
M  END
>  <Name>
tox-1

>  <substance>
4,4'-(1,3-Adamantanediyl)diphenol

>  <CASRN>


>  <from_NCI>
0

>  <RBA>
6.500000

>  <method>
hERa-FP

>  <chemical_class>
Phenol

>  <set>
0

$$$$
tox-2
  Cerius2 12190218263D 1   1.00000                          
 Structure written by MMmdl.
 40 43  0  0  0  0  0  0  0  0999 V2000
   -0.4036    1.9041   -0.0917 C   0  0  0  0  0  0
   -0.2514    0.5077   -0.0570 C   0  0  0  0  0  0
   -1.4506   -0.2497   -0.0419 C   0  0  0  0  0  0
   -2.7246    0.3399   -0.0709 C   0  0  0  0  0  0
   -2.8246    1.7277   -0.0898 C   0  0  0  0  0  0
   -1.6700    2.5051   -0.1055 C   0  0  0  0  0  0
    0.6796    2.7355   -0.1098 O   0  0  0  0  0  0
   -3.9579   -0.5144   -0.0206 C   0  0  0  0  0  0
    1.0937   -0.2589   -0.0316 C   0  0  0  0  0  0
    1.1754   -1.1324    1.2608 C   0  0  0  0  0  0
    2.4518   -1.9923    1.2822 C   0  0  0  0  0  0
    3.6831   -1.0781    1.2515 C   0  0  0  0  0  0
    3.6656   -0.2301   -0.0268 C   0  0  0  0  0  0
    3.6887   -1.1507   -1.2537 C   0  0  0  0  0  0
    2.4576   -2.0654   -1.2368 C   0  0  0  0  0  0
    1.1814   -1.2058   -1.2710 C   0  0  0  0  0  0
    2.4670   -2.9089    0.0483 C   0  0  0  0  0  0
    2.3824    0.6200   -0.0541 C   0  0  0  0  0  0
   -1.4031   -1.3389   -0.0071 H   0  0  0  0  0  0
   -3.7982    2.2154   -0.0935 H   0  0  0  0  0  0
   -1.7741    3.5886   -0.1262 H   0  0  0  0  0  0
    0.3742    3.6661   -0.1335 H   0  0  0  0  0  0
   -4.2165   -0.7366    1.0192 H   0  0  0  0  0  0
   -3.8009   -1.4559   -0.5573 H   0  0  0  0  0  0
   -4.8053   -0.0082   -0.4948 H   0  0  0  0  0  0
    0.3123   -1.8036    1.3455 H   0  0  0  0  0  0
    1.1479   -0.4872    2.1494 H   0  0  0  0  0  0
    2.4688   -2.6011    2.1933 H   0  0  0  0  0  0
    4.5995   -1.6795    1.2914 H   0  0  0  0  0  0
    3.6908   -0.4277    2.1348 H   0  0  0  0  0  0
    4.5425    0.4271   -0.0438 H   0  0  0  0  0  0
    4.6053   -1.7533   -1.2545 H   0  0  0  0  0  0
    3.7004   -0.5526   -2.1731 H   0  0  0  0  0  0
    2.4785   -2.7259   -2.1109 H   0  0  0  0  0  0
    1.1581   -0.6130   -2.1955 H   0  0  0  0  0  0
    0.3187   -1.8810   -1.3209 H   0  0  0  0  0  0
    1.5967   -3.5765    0.0656 H   0  0  0  0  0  0
    3.3582   -3.5482    0.0688 H   0  0  0  0  0  0
    2.4002    1.2927    0.8129 H   0  0  0  0  0  0
    2.4036    1.2423   -0.9580 H   0  0  0  0  0  0
  1  2  2  0  0  0
  1  6  1  0  0  0
  1  7  1  0  0  0
  2  3  1  0  0  0
  2  9  1  0  0  0
  3  4  2  0  0  0
  3 19  1  0  0  0
  4  5  1  0  0  0
  4  8  1  0  0  0
  5  6  2  0  0  0
  5 20  1  0  0  0
  6 21  1  0  0  0
  7 22  1  0  0  0
  8 23  1  0  0  0
  8 24  1  0  0  0
  8 25  1  0  0  0
  9 10  1  0  0  0
  9 16  1  0  0  0
  9 18  1  0  0  0
 10 11  1  0  0  0
 10 26  1  0  0  0
 10 27  1  0  0  0
 11 12  1  0  0  0
 11 17  1  0  0  0
 11 28  1  0  0  0
 12 13  1  0  0  0
 12 29  1  0  0  0
 12 30  1  0  0  0
 13 14  1  0  0  0
 13 18  1  0  0  0
 13 31  1  0  0  0
 14 15  1  0  0  0
 14 32  1  0  0  0
 14 33  1  0  0  0
 15 16  1  0  0  0
 15 17  1  0  0  0
 15 34  1  0  0  0
 16 35  1  0  0  0
 16 36  1  0  0  0
 17 37  1  0  0  0
 17 38  1  0  0  0
 18 39  1  0  0  0
 18 40  1  0  0  0
M  END
>  <Name>
tox-2

>  <substance>
2-(1-Adamantyl)-4-methylphenol

>  <CASRN>
41031-50-9

>  <from_NCI>
0

>  <RBA>
0.000000

>  <method>
hERa-FP

>  <chemical_class>
Phenol

>  <set>
1

$$$$
tox-3
  Cerius2 12190218263D 1   1.00000                          
 Structure written by MMmdl.
 37 40  0  0  0  0  0  0  0  0999 V2000
   -4.7357   -0.0493   -0.0218 O   0  0  0  0  0  0
   -3.4646   -0.0156   -0.0183 C   0  0  0  0  0  0
   -2.7313    1.1830   -0.0140 C   0  0  0  0  0  0
   -2.6690   -1.1728   -0.0183 C   0  0  0  0  0  0
   -1.3222    1.2331   -0.0101 C   0  0  0  0  0  0
   -1.2609   -1.1419   -0.0144 C   0  0  0  0  0  0
   -0.5515    0.0668   -0.0101 C   0  0  0  0  0  0
    0.9854    0.0730   -0.0057 C   0  0  0  0  0  0
    1.6089    1.5034   -0.0016 C   0  0  0  0  0  0
    3.1465    1.4523    0.0027 C   0  0  0  0  0  0
    3.6309    0.7098   -1.2506 C   0  0  0  0  0  0
    3.0671   -0.7179   -1.2607 C   0  0  0  0  0  0
    3.5403   -1.4604   -0.0005 C   0  0  0  0  0  0
    3.0597   -0.7217    1.2592 C   0  0  0  0  0  0
    1.5216   -0.6638    1.2581 C   0  0  0  0  0  0
    3.6237    0.7060    1.2566 C   0  0  0  0  0  0
    1.5289   -0.6601   -1.2684 C   0  0  0  0  0  0
   -3.2632    2.1393   -0.0135 H   0  0  0  0  0  0
   -3.1469   -2.1568   -0.0214 H   0  0  0  0  0  0
   -0.8641    2.2201   -0.0070 H   0  0  0  0  0  0
   -0.7347   -2.0960   -0.0148 H   0  0  0  0  0  0
    1.2720    2.0642    0.8804 H   0  0  0  0  0  0
    1.2771    2.0670   -0.8839 H   0  0  0  0  0  0
    3.5489    2.4716    0.0054 H   0  0  0  0  0  0
    4.7273    0.6807   -1.2694 H   0  0  0  0  0  0
    3.3114    1.2462   -2.1525 H   0  0  0  0  0  0
    3.4192   -1.2463   -2.1538 H   0  0  0  0  0  0
    4.6349   -1.5315    0.0026 H   0  0  0  0  0  0
    3.1551   -2.4875   -0.0032 H   0  0  0  0  0  0
    3.4067   -1.2528    2.1527 H   0  0  0  0  0  0
    1.1350   -1.6894    1.3103 H   0  0  0  0  0  0
    1.1693   -0.1568    2.1665 H   0  0  0  0  0  0
    3.2991    1.2398    2.1582 H   0  0  0  0  0  0
    4.7200    0.6768    1.2814 H   0  0  0  0  0  0
    1.1819   -0.1503   -2.1774 H   0  0  0  0  0  0
    1.1427   -1.6855   -1.3259 H   0  0  0  0  0  0
   -4.9977   -0.8579   -0.0241 H   0  0  0  0  0  0
  1  2  1  0  0  0
  1 37  1  0  0  0
  2  3  2  0  0  0
  2  4  1  0  0  0
  3  5  1  0  0  0
  3 18  1  0  0  0
  4  6  2  0  0  0
  4 19  1  0  0  0
  5  7  2  0  0  0
  5 20  1  0  0  0
  6  7  1  0  0  0
  6 21  1  0  0  0
  7  8  1  0  0  0
  8  9  1  0  0  0
  8 15  1  0  0  0
  8 17  1  0  0  0
  9 10  1  0  0  0
  9 22  1  0  0  0
  9 23  1  0  0  0
 10 11  1  0  0  0
 10 16  1  0  0  0
 10 24  1  0  0  0
 11 12  1  0  0  0
 11 25  1  0  0  0
 11 26  1  0  0  0
 12 13  1  0  0  0
 12 17  1  0  0  0
 12 27  1  0  0  0
 13 14  1  0  0  0
 13 28  1  0  0  0
 13 29  1  0  0  0
 14 15  1  0  0  0
 14 16  1  0  0  0
 14 30  1  0  0  0
 15 31  1  0  0  0
 15 32  1  0  0  0
 16 33  1  0  0  0
 16 34  1  0  0  0
 17 35  1  0  0  0
 17 36  1  0  0  0
M  END
>  <Name>
tox-3

>  <substance>
4-(1-Adamantyl)phenol

>  <CASRN>
29799-07-3

>  <from_NCI>
1

>  <RBA>
1.300000

>  <method>
hERa-FP

>  <chemical_class>
Phenol

>  <set>
1

$$$$
tox-4
  Cerius2 12190218263D 1   1.00000                          
 Structure written by MMmdl.
 38 38  0  0  0  0  0  0  0  0999 V2000
   -0.5697    0.0161   -0.3598 C   0  0  0  0  0  0
    0.8450   -0.0846   -0.4850 N   0  0  0  0  0  0
   -1.2027    1.2761   -0.4787 C   0  0  0  0  0  0
   -1.3325   -1.1435   -0.0803 C   0  0  0  0  0  0
    1.4278   -0.0894   -1.7568 C   0  0  0  0  0  0
    1.5989   -0.1826    0.7643 C   0  0  0  0  0  0
   -2.5963    1.3536   -0.3048 C   0  0  0  0  0  0
   -2.7238   -1.0213    0.0781 C   0  0  0  0  0  0
    2.9541   -0.1290   -1.7913 C   0  0  0  0  0  0
    0.7484   -0.0742   -2.7912 O   0  0  0  0  0  0
    2.2143    1.0826    1.0049 O   0  0  0  0  0  0
   -3.3496    0.2166   -0.0287 C   0  0  0  0  0  0
    3.5653   -0.0204   -3.4645 Cl  0  0  0  0  0  0
    2.9264    1.0727    2.2400 C   0  0  0  0  0  0
   -0.7383   -2.5348   -0.0049 C   0  0  0  0  0  0
   -0.7886   -3.2494   -1.3475 C   0  0  0  0  0  0
   -0.4569    2.5644   -0.7599 C   0  0  0  0  0  0
   -0.7283    3.1066   -2.1571 C   0  0  0  0  0  0
    2.3663   -0.9573    0.6680 H   0  0  0  0  0  0
    0.9323   -0.4366    1.5971 H   0  0  0  0  0  0
   -3.1059    2.3142   -0.3805 H   0  0  0  0  0  0
   -3.3329   -1.9022    0.2814 H   0  0  0  0  0  0
    3.3135   -1.0723   -1.3739 H   0  0  0  0  0  0
    3.3721    0.7164   -1.2420 H   0  0  0  0  0  0
   -4.4279    0.2951    0.0995 H   0  0  0  0  0  0
    3.3867    2.0547    2.3772 H   0  0  0  0  0  0
    3.7158    0.3151    2.2196 H   0  0  0  0  0  0
    2.2429    0.8867    3.0740 H   0  0  0  0  0  0
   -1.2887   -3.1225    0.7409 H   0  0  0  0  0  0
    0.2935   -2.5074    0.3569 H   0  0  0  0  0  0
   -0.3635   -4.2540   -1.2564 H   0  0  0  0  0  0
   -0.2180   -2.7089   -2.1093 H   0  0  0  0  0  0
   -1.8180   -3.3495   -1.7077 H   0  0  0  0  0  0
    0.6221    2.4410   -0.6336 H   0  0  0  0  0  0
   -0.7546    3.3112   -0.0128 H   0  0  0  0  0  0
   -0.1551    4.0246   -2.3222 H   0  0  0  0  0  0
   -1.7877    3.3439   -2.2991 H   0  0  0  0  0  0
   -0.4410    2.3843   -2.9274 H   0  0  0  0  0  0
  1  2  1  0  0  0
  1  3  2  0  0  0
  1  4  1  0  0  0
  2  5  1  0  0  0
  2  6  1  0  0  0
  3  7  1  0  0  0
  3 17  1  0  0  0
  4  8  2  0  0  0
  4 15  1  0  0  0
  5  9  1  0  0  0
  5 10  2  0  0  0
  6 11  1  0  0  0
  6 19  1  0  0  0
  6 20  1  0  0  0
  7 12  2  0  0  0
  7 21  1  0  0  0
  8 12  1  0  0  0
  8 22  1  0  0  0
  9 13  1  0  0  0
  9 23  1  0  0  0
  9 24  1  0  0  0
 11 14  1  0  0  0
 12 25  1  0  0  0
 14 26  1  0  0  0
 14 27  1  0  0  0
 14 28  1  0  0  0
 15 16  1  0  0  0
 15 29  1  0  0  0
 15 30  1  0  0  0
 16 31  1  0  0  0
 16 32  1  0  0  0
 16 33  1  0  0  0
 17 18  1  0  0  0
 17 34  1  0  0  0
 17 35  1  0  0  0
 18 36  1  0  0  0
 18 37  1  0  0  0
 18 38  1  0  0  0
M  END
>  <Name>
tox-4

>  <substance>
Alachlor

>  <CASRN>
15972-60-8

>  <from_NCI>
1

>  <RBA>
0.000000

>  <method>
hERa,RUC

>  <chemical_class>
Anilide

>  <set>
2

$$$$
tox-5
  Cerius2 12190218263D 1   1.00000                          
 Structure written by MMmdl.
 54 57  0  0  0  0  0  0  0  0999 V2000
   -9.2058   -4.4629   10.4580 C   0  0  0  0  0  0
   -7.8091   -5.0537   10.6966 C   0  0  0  0  0  0
   -9.7183   -5.4203    9.3539 C   0  0  0  0  0  0
   -9.9881   -4.5383   11.7885 C   0  0  0  0  0  0
   -9.2121   -3.0126    9.9304 C   0  0  0  0  0  0
   -6.9780   -4.2728   11.7268 C   0  0  0  0  0  0
   -7.2467   -5.2827    9.2964 C   0  0  0  0  0  0
   -8.4821   -5.6149    8.4446 C   0  0  0  0  0  0
  -10.9723   -4.9894    8.5793 C   0  0  0  0  0  0
   -9.2713   -3.8594   13.0095 C   0  0  0  0  0  0
   -8.3387   -2.4994    9.2284 O   0  0  0  0  0  0
   -7.7384   -4.2837   13.1005 C   0  0  0  0  0  0
   -5.5897   -4.9253   11.8603 C   0  0  0  0  0  0
  -11.5980   -3.6195    8.9528 C   0  0  0  0  0  0
  -11.4150   -5.6507    7.6316 O   0  0  0  0  0  0
   -9.4244   -2.5539   12.8720 O   0  0  0  0  0  0
   -6.8776   -3.6980   14.3106 C   0  0  0  0  0  0
   -4.7545   -4.3072   12.9680 C   0  0  0  0  0  0
  -12.8877   -3.6241    8.6372 O   0  0  0  0  0  0
   -5.4774   -4.3356   14.2922 C   0  0  0  0  0  0
   -7.6030   -4.0587   15.6418 C   0  0  0  0  0  0
   -6.6521   -2.1692   14.2487 C   0  0  0  0  0  0
   -4.8714   -4.8544   15.3757 C   0  0  0  0  0  0
   -6.7248   -3.9256   16.8772 C   0  0  0  0  0  0
   -5.4786   -4.7582   16.7233 C   0  0  0  0  0  0
   -4.9174   -5.2892   17.6842 O   0  0  0  0  0  0
   -7.9437   -6.0652   11.1175 H   0  0  0  0  0  0
   -9.9688   -6.3881    9.8121 H   0  0  0  0  0  0
  -10.1263   -5.5987   12.0465 H   0  0  0  0  0  0
  -11.0043   -4.1373   11.6608 H   0  0  0  0  0  0
  -10.1226   -2.4312   10.1628 H   0  0  0  0  0  0
   -6.8430   -3.2371   11.3944 H   0  0  0  0  0  0
   -6.5262   -6.1076    9.2800 H   0  0  0  0  0  0
   -6.7343   -4.3969    8.9076 H   0  0  0  0  0  0
   -8.5157   -4.9644    7.5632 H   0  0  0  0  0  0
   -8.4331   -6.6475    8.0813 H   0  0  0  0  0  0
   -9.7415   -4.3355   13.8839 H   0  0  0  0  0  0
   -7.8077   -5.3620   13.3355 H   0  0  0  0  0  0
   -5.0413   -4.8297   10.9155 H   0  0  0  0  0  0
   -5.6998   -6.0012   12.0516 H   0  0  0  0  0  0
  -10.9300   -2.9010    8.4496 H   0  0  0  0  0  0
  -11.3144   -3.4457   10.0021 H   0  0  0  0  0  0
   -4.5092   -3.2698   12.7109 H   0  0  0  0  0  0
   -3.7978   -4.8408   13.0276 H   0  0  0  0  0  0
   -7.9578   -5.0979   15.5938 H   0  0  0  0  0  0
   -8.4949   -3.4344   15.7741 H   0  0  0  0  0  0
   -5.8592   -1.8464   14.9346 H   0  0  0  0  0  0
   -7.5502   -1.6138   14.5363 H   0  0  0  0  0  0
   -6.3640   -1.8381   13.2456 H   0  0  0  0  0  0
   -3.8851   -5.3041   15.3343 H   0  0  0  0  0  0
   -7.2774   -4.2857   17.7519 H   0  0  0  0  0  0
   -6.4346   -2.8862   17.0602 H   0  0  0  0  0  0
  -13.2320   -2.8743    8.8412 H   0  0  0  0  0  0
   -9.0461   -2.1545   13.5200 H   0  0  0  0  0  0
  1  2  1  0  0  0
  1  3  1  0  0  0
  1  4  1  0  0  0
  1  5  1  0  0  0
  2  6  1  0  0  0
  2  7  1  0  0  0
  2 27  1  0  0  0
  3  8  1  0  0  0
  3  9  1  0  0  0
  3 28  1  0  0  0
  4 10  1  0  0  0
  4 29  1  0  0  0
  4 30  1  0  0  0
  5 11  2  0  0  0
  5 31  1  0  0  0
  6 12  1  0  0  0
  6 13  1  0  0  0
  6 32  1  0  0  0
  7  8  1  0  0  0
  7 33  1  0  0  0
  7 34  1  0  0  0
  8 35  1  0  0  0
  8 36  1  0  0  0
  9 14  1  0  0  0
  9 15  2  0  0  0
 10 12  1  0  0  0
 10 16  1  0  0  0
 10 37  1  0  0  0
 12 17  1  0  0  0
 12 38  1  0  0  0
 13 18  1  0  0  0
 13 39  1  0  0  0
 13 40  1  0  0  0
 14 19  1  0  0  0
 14 41  1  0  0  0
 14 42  1  0  0  0
 16 54  1  0  0  0
 17 20  1  0  0  0
 17 21  1  0  0  0
 17 22  1  0  0  0
 18 20  1  0  0  0
 18 43  1  0  0  0
 18 44  1  0  0  0
 19 53  1  0  0  0
 20 23  2  0  0  0
 21 24  1  0  0  0
 21 45  1  0  0  0
 21 46  1  0  0  0
 22 47  1  0  0  0
 22 48  1  0  0  0
 22 49  1  0  0  0
 23 25  1  0  0  0
 23 50  1  0  0  0
 24 25  1  0  0  0
 24 51  1  0  0  0
 24 52  1  0  0  0
 25 26  2  0  0  0
M  END
>  <Name>
tox-5

>  <substance>
Aldosterone

>  <CASRN>
52-39-1

>  <from_NCI>
1

>  <RBA>
0.000000

>  <method>
RUC

>  <chemical_class>
Steroid, nonphenolic

>  <set>
2

$$$$
tox-6
  Cerius2 12190218263D 1   1.00000                          
 Structure written by MMmdl.
 26 29  0  0  0  0  0  0  0  0999 V2000
    0.9730   -1.0779   -0.0107 C   0  0  0  0  0  0
   -0.5439   -1.4061   -0.2018 C   0  0  0  0  0  0
    0.9845   -0.5246    1.4611 C   0  0  0  0  0  0
    1.3335    0.2056   -0.7288 C   0  0  0  0  0  0
    2.0243   -2.4568   -0.3177 Cl  0  0  0  0  0  0
   -1.2485   -0.2115    0.5703 C   0  0  0  0  0  0
   -1.2530   -1.3739   -1.5818 C   0  0  0  0  0  0
   -0.0277    0.6185    1.0858 C   0  0  0  0  0  0
    2.6062    0.0538    2.0461 Cl  0  0  0  0  0  0
    0.4103   -1.6804    2.7251 Cl  0  0  0  0  0  0
    0.7381    1.2149   -0.0765 C   0  0  0  0  0  0
    2.2853    0.2897   -2.1318 Cl  0  0  0  0  0  0
   -2.2526    0.3207   -0.4866 C   0  0  0  0  0  0
   -1.5716    0.1030   -1.8430 C   0  0  0  0  0  0
   -2.6888   -1.7987   -1.3040 C   0  0  0  0  0  0
   -0.4447    1.7287    2.3875 Cl  0  0  0  0  0  0
    0.7649    2.8668   -0.4662 Cl  0  0  0  0  0  0
   -3.2864   -0.7856   -0.6493 C   0  0  0  0  0  0
   -0.7735   -2.3590    0.2966 H   0  0  0  0  0  0
   -1.8092   -0.6034    1.4313 H   0  0  0  0  0  0
   -0.7684   -1.9076   -2.3994 H   0  0  0  0  0  0
   -2.6687    1.3138   -0.3173 H   0  0  0  0  0  0
   -2.2555    0.2491   -2.6932 H   0  0  0  0  0  0
   -0.7163    0.7382   -2.0451 H   0  0  0  0  0  0
   -3.1195   -2.7602   -1.5461 H   0  0  0  0  0  0
   -4.2943   -0.7686   -0.2588 H   0  0  0  0  0  0
  1  2  1  0  0  0
  1  3  1  0  0  0
  1  4  1  0  0  0
  1  5  1  0  0  0
  2  6  1  0  0  0
  2  7  1  0  0  0
  2 19  1  0  0  0
  3  8  1  0  0  0
  3  9  1  0  0  0
  3 10  1  0  0  0
  4 11  2  0  0  0
  4 12  1  0  0  0
  6  8  1  0  0  0
  6 13  1  0  0  0
  6 20  1  0  0  0
  7 14  1  0  0  0
  7 15  1  0  0  0
  7 21  1  0  0  0
  8 11  1  0  0  0
  8 16  1  0  0  0
 11 17  1  0  0  0
 13 14  1  0  0  0
 13 18  1  0  0  0
 13 22  1  0  0  0
 14 23  1  0  0  0
 14 24  1  0  0  0
 15 18  2  0  0  0
 15 25  1  0  0  0
 18 26  1  0  0  0
M  END
>  <Name>
tox-6

>  <substance>
Aldrin

>  <CASRN>
309-00-2

>  <from_NCI>
1

>  <RBA>
0.000000

>  <method>
RUC

>  <chemical_class>
Cyclodiene

>  <set>
2

$$$$
tox-7
  Cerius2 12190218263D 1   1.00000                          
 Structure written by MMmdl.
 48 49  0  0  0  0  0  0  0  0999 V2000
   -2.5043    0.8812    1.8422 C   0  0  0  0  0  0
   -1.2623    1.6970    2.1243 C   0  0  0  0  0  0
   -2.2969    1.4752    3.2241 C   0  0  0  0  0  0
   -2.4373   -0.5646    1.5926 C   0  0  0  0  0  0
    0.1052    1.1320    2.2022 C   0  0  0  0  0  0
   -1.9737    0.5943    4.4101 C   0  0  0  0  0  0
   -3.1703    2.6529    3.5955 C   0  0  0  0  0  0
   -2.4222   -1.1753    0.3899 C   0  0  0  0  0  0
    0.5714    0.7593    0.9787 O   0  0  0  0  0  0
    0.7549    1.1252    3.2406 O   0  0  0  0  0  0
   -2.4073   -2.6765    0.2761 C   0  0  0  0  0  0
   -2.4407   -0.4435   -0.9253 C   0  0  0  0  0  0
    1.9516    0.3597    0.9639 C   0  0  0  0  0  0
    2.2444   -0.2856   -0.3649 C   0  0  0  0  0  0
    2.8769    1.5742    1.0186 C   0  0  0  0  0  0
    3.1145    0.3904   -1.1328 C   0  0  0  0  0  0
    1.5757   -1.5764   -0.7035 C   0  0  0  0  0  0
    3.5167    1.5653   -0.3360 C   0  0  0  0  0  0
    3.6807    0.1020   -2.4784 C   0  0  0  0  0  0
    4.3032    2.4175   -0.7353 O   0  0  0  0  0  0
    2.9329    0.8240   -3.5647 C   0  0  0  0  0  0
    2.1930    0.2230   -4.5061 C   0  0  0  0  0  0
   -3.2701    1.3669    1.2390 H   0  0  0  0  0  0
   -1.2455    2.6882    1.6777 H   0  0  0  0  0  0
   -2.4551   -1.2090    2.4711 H   0  0  0  0  0  0
   -1.4862    1.1830    5.1945 H   0  0  0  0  0  0
   -1.3065   -0.2362    4.1646 H   0  0  0  0  0  0
   -2.8933    0.1701    4.8253 H   0  0  0  0  0  0
   -2.6675    3.2813    4.3370 H   0  0  0  0  0  0
   -4.1177    2.3046    4.0190 H   0  0  0  0  0  0
   -3.4033    3.2807    2.7283 H   0  0  0  0  0  0
   -3.2974   -3.0235   -0.2596 H   0  0  0  0  0  0
   -2.3953   -3.1683    1.2545 H   0  0  0  0  0  0
   -1.5196   -3.0077   -0.2720 H   0  0  0  0  0  0
   -1.6098   -0.7712   -1.5576 H   0  0  0  0  0  0
   -2.3511    0.6404   -0.8111 H   0  0  0  0  0  0
   -3.3774   -0.6494   -1.4536 H   0  0  0  0  0  0
    2.1572   -0.3431    1.7812 H   0  0  0  0  0  0
    3.6567    1.4407    1.7740 H   0  0  0  0  0  0
    2.3446    2.5165    1.1740 H   0  0  0  0  0  0
    1.8676   -1.9536   -1.6874 H   0  0  0  0  0  0
    0.4912   -1.4525   -0.7092 H   0  0  0  0  0  0
    1.8326   -2.3410    0.0365 H   0  0  0  0  0  0
    3.6822   -0.9783   -2.6663 H   0  0  0  0  0  0
    4.7346    0.4042   -2.5154 H   0  0  0  0  0  0
    3.0207    1.9098   -3.5766 H   0  0  0  0  0  0
    1.6787    0.8051   -5.2667 H   0  0  0  0  0  0
    2.0775   -0.8571   -4.5436 H   0  0  0  0  0  0
  1  2  1  0  0  0
  1  3  1  0  0  0
  1  4  1  0  0  0
  1 23  1  0  0  0
  2  3  1  0  0  0
  2  5  1  0  0  0
  2 24  1  0  0  0
  3  6  1  0  0  0
  3  7  1  0  0  0
  4  8  2  0  0  0
  4 25  1  0  0  0
  5  9  1  0  0  0
  5 10  2  0  0  0
  6 26  1  0  0  0
  6 27  1  0  0  0
  6 28  1  0  0  0
  7 29  1  0  0  0
  7 30  1  0  0  0
  7 31  1  0  0  0
  8 11  1  0  0  0
  8 12  1  0  0  0
  9 13  1  0  0  0
 11 32  1  0  0  0
 11 33  1  0  0  0
 11 34  1  0  0  0
 12 35  1  0  0  0
 12 36  1  0  0  0
 12 37  1  0  0  0
 13 14  1  0  0  0
 13 15  1  0  0  0
 13 38  1  0  0  0
 14 16  2  0  0  0
 14 17  1  0  0  0
 15 18  1  0  0  0
 15 39  1  0  0  0
 15 40  1  0  0  0
 16 18  1  0  0  0
 16 19  1  0  0  0
 17 41  1  0  0  0
 17 42  1  0  0  0
 17 43  1  0  0  0
 18 20  2  0  0  0
 19 21  1  0  0  0
 19 44  1  0  0  0
 19 45  1  0  0  0
 21 22  2  0  0  0
 21 46  1  0  0  0
 22 47  1  0  0  0
 22 48  1  0  0  0
M  END
>  <Name>
tox-7

>  <substance>
d-trans Allethrin

>  <CASRN>
584-79-2

>  <from_NCI>
1

>  <RBA>
0.000000

>  <method>
hERa-FP

>  <chemical_class>
Pyrethrin; Pyrethroid

>  <set>
1

$$$$
tox-8
  Cerius2 12190218263D 1   1.00000                          
 Structure written by MMmdl.
 50 53  0  0  0  0  0  0  0  0999 V2000
    4.3626   -1.0624   -3.7962 C   0  0  0  0  0  0
    4.1572   -1.9472   -2.7429 C   0  0  0  0  0  0
    2.9585   -1.9047   -2.0273 C   0  0  0  0  0  0
    1.9643   -0.9781   -2.3706 C   0  0  0  0  0  0
    2.1898   -0.0893   -3.4331 C   0  0  0  0  0  0
    3.3895   -0.1326   -4.1481 C   0  0  0  0  0  0
    5.5460   -1.1347   -4.4705 O   0  0  0  0  0  0
   -0.4620   -2.5115    0.9334 S   0  0  0  0  0  0
   -1.8752   -2.0764   -0.0813 C   0  0  0  0  0  0
   -1.7229   -1.5950   -1.3986 C   0  0  0  0  0  0
   -0.3991   -1.5754   -2.0983 C   0  0  0  0  0  0
    0.6938   -0.9331   -1.5933 C   0  0  0  0  0  0
    0.6855   -0.2429   -0.2611 C   0  0  0  0  0  0
    0.2834   -0.8765    0.9328 C   0  0  0  0  0  0
   -2.8726   -1.1675   -2.0865 C   0  0  0  0  0  0
   -4.1370   -1.2415   -1.4967 C   0  0  0  0  0  0
   -4.2760   -1.7440   -0.2073 C   0  0  0  0  0  0
   -3.1487   -2.1566    0.5014 C   0  0  0  0  0  0
    0.3998   -0.2159    2.1695 C   0  0  0  0  0  0
    0.9102    1.0799    2.2339 C   0  0  0  0  0  0
    1.2958    1.7170    1.0550 C   0  0  0  0  0  0
    1.1900    1.0643   -0.1769 C   0  0  0  0  0  0
   -0.4004   -2.3675   -3.4086 C   0  0  0  0  0  0
   -0.3878   -3.8728   -3.1629 C   0  0  0  0  0  0
    1.0740    1.8271    3.3678 O   0  0  0  0  0  0
    0.7522    1.1996    4.6123 C   0  0  0  0  0  0
    1.0439    2.1937    5.6971 C   0  0  0  0  0  0
    1.8922    1.9881    6.7134 C   0  0  0  0  0  0
    4.9238   -2.6699   -2.4733 H   0  0  0  0  0  0
    2.8044   -2.5992   -1.2033 H   0  0  0  0  0  0
    1.4301    0.6396   -3.7106 H   0  0  0  0  0  0
    3.5446    0.5622   -4.9701 H   0  0  0  0  0  0
    5.5410   -0.4547   -5.1777 H   0  0  0  0  0  0
   -2.7982   -0.7634   -3.0951 H   0  0  0  0  0  0
   -5.0137   -0.9066   -2.0485 H   0  0  0  0  0  0
   -5.2607   -1.8018    0.2531 H   0  0  0  0  0  0
   -3.2717   -2.5246    1.5187 H   0  0  0  0  0  0
    0.0719   -0.7338    3.0667 H   0  0  0  0  0  0
    1.6930    2.7303    1.0873 H   0  0  0  0  0  0
    1.5133    1.5943   -1.0712 H   0  0  0  0  0  0
    0.4588   -2.1253   -4.0402 H   0  0  0  0  0  0
   -1.2681   -2.1097   -4.0258 H   0  0  0  0  0  0
   -0.3478   -4.4075   -4.1174 H   0  0  0  0  0  0
   -1.2879   -4.2031   -2.6342 H   0  0  0  0  0  0
    0.4859   -4.1705   -2.5732 H   0  0  0  0  0  0
    1.3539    0.2928    4.7478 H   0  0  0  0  0  0
   -0.3151    0.9521    4.6454 H   0  0  0  0  0  0
    0.5084    3.1397    5.6369 H   0  0  0  0  0  0
    2.0529    2.7531    7.4690 H   0  0  0  0  0  0
    2.4473    1.0595    6.8202 H   0  0  0  0  0  0
  1  2  2  0  0  0
  1  6  1  0  0  0
  1  7  1  0  0  0
  2  3  1  0  0  0
  2 29  1  0  0  0
  3  4  2  0  0  0
  3 30  1  0  0  0
  4  5  1  0  0  0
  4 12  1  0  0  0
  5  6  2  0  0  0
  5 31  1  0  0  0
  6 32  1  0  0  0
  7 33  1  0  0  0
  8  9  1  0  0  0
  8 14  1  0  0  0
  9 10  2  0  0  0
  9 18  1  0  0  0
 10 11  1  0  0  0
 10 15  1  0  0  0
 11 12  2  0  0  0
 11 23  1  0  0  0
 12 13  1  0  0  0
 13 14  2  0  0  0
 13 22  1  0  0  0
 14 19  1  0  0  0
 15 16  2  0  0  0
 15 34  1  0  0  0
 16 17  1  0  0  0
 16 35  1  0  0  0
 17 18  2  0  0  0
 17 36  1  0  0  0
 18 37  1  0  0  0
 19 20  2  0  0  0
 19 38  1  0  0  0
 20 21  1  0  0  0
 20 25  1  0  0  0
 21 22  2  0  0  0
 21 39  1  0  0  0
 22 40  1  0  0  0
 23 24  1  0  0  0
 23 41  1  0  0  0
 23 42  1  0  0  0
 24 43  1  0  0  0
 24 44  1  0  0  0
 24 45  1  0  0  0
 25 26  1  0  0  0
 26 27  1  0  0  0
 26 46  1  0  0  0
 26 47  1  0  0  0
 27 28  2  0  0  0
 27 48  1  0  0  0
 28 49  1  0  0  0
 28 50  1  0  0  0
M  END
>  <Name>
tox-8

>  <substance>
p -(7-Alloxyl)-11-ethyldibenzo-[b,f ]thiepin-10-yl)phenol

>  <CASRN>
85850-86-8

>  <from_NCI>
0

>  <RBA>
5.200000

>  <method>
RUC

>  <chemical_class>
Stilbene; Phenol

>  <set>
1

$$$$
tox-9
  Cerius2 12190218263D 1   1.00000                          
 Structure written by MMmdl.
 53 56  0  0  0  0  0  0  0  0999 V2000
   -4.4367   -2.8502    0.4324 C   0  0  0  0  0  0
   -3.7983   -2.6492   -0.7864 C   0  0  0  0  0  0
   -2.4206   -2.4203   -0.8163 C   0  0  0  0  0  0
   -1.6814   -2.3959    0.3742 C   0  0  0  0  0  0
   -2.3424   -2.5959    1.5945 C   0  0  0  0  0  0
   -3.7208   -2.8250    1.6247 C   0  0  0  0  0  0
   -5.7825   -3.0710    0.4211 O   0  0  0  0  0  0
    1.0078   -0.8964   -2.5082 S   0  0  0  0  0  0
    0.8636   -0.1516   -0.8763 C   0  0  0  0  0  0
    0.3094   -0.7541    0.2723 C   0  0  0  0  0  0
   -0.2187   -2.1489    0.3327 C   0  0  0  0  0  0
    0.6460   -3.1978    0.4002 C   0  0  0  0  0  0
    2.1072   -2.9624    0.2677 C   0  0  0  0  0  0
    2.6574   -2.6295   -0.9899 C   0  0  0  0  0  0
    1.7799   -2.5287   -2.2138 C   0  0  0  0  0  0
    0.2489   -0.0116    1.4659 C   0  0  0  0  0  0
    0.7148    1.3025    1.5219 C   0  0  0  0  0  0
    1.2491    1.9093    0.3891 C   0  0  0  0  0  0
    1.3167    1.1840   -0.8018 C   0  0  0  0  0  0
    4.0324   -2.3623   -1.0875 C   0  0  0  0  0  0
    4.8489   -2.4288    0.0418 C   0  0  0  0  0  0
    4.3015   -2.7520    1.2813 C   0  0  0  0  0  0
    2.9355   -3.0124    1.3963 C   0  0  0  0  0  0
    0.2568   -4.6665    0.4559 C   0  0  0  0  0  0
    0.2870   -5.2558    1.8600 C   0  0  0  0  0  0
    1.6637    3.1996    0.5738 O   0  0  0  0  0  0
    2.2156    3.8764   -0.5589 C   0  0  0  0  0  0
    2.5547    5.2697   -0.1185 C   0  0  0  0  0  0
    3.7744    5.8193   -0.1927 C   0  0  0  0  0  0
   -4.3645   -2.6693   -1.7147 H   0  0  0  0  0  0
   -1.9296   -2.2659   -1.7752 H   0  0  0  0  0  0
   -1.7879   -2.5748    2.5311 H   0  0  0  0  0  0
   -4.2137   -2.9794    2.5815 H   0  0  0  0  0  0
   -6.0834   -3.1928    1.3469 H   0  0  0  0  0  0
    2.3764   -2.7631   -3.1038 H   0  0  0  0  0  0
    0.9939   -3.2915   -2.2006 H   0  0  0  0  0  0
   -0.1603   -0.4568    2.3719 H   0  0  0  0  0  0
    0.6554    1.8507    2.4606 H   0  0  0  0  0  0
    1.7285    1.6399   -1.6990 H   0  0  0  0  0  0
    4.4746   -2.0958   -2.0468 H   0  0  0  0  0  0
    5.9139   -2.2201   -0.0445 H   0  0  0  0  0  0
    4.9380   -2.7929    2.1633 H   0  0  0  0  0  0
    2.5214   -3.2378    2.3771 H   0  0  0  0  0  0
    0.9225   -5.2520   -0.1919 H   0  0  0  0  0  0
   -0.7438   -4.8197    0.0362 H   0  0  0  0  0  0
   -0.3182   -4.6702    2.5581 H   0  0  0  0  0  0
    1.3068   -5.3087    2.2519 H   0  0  0  0  0  0
   -0.1099   -6.2763    1.8445 H   0  0  0  0  0  0
    1.4731    3.9382   -1.3631 H   0  0  0  0  0  0
    3.1118    3.3528   -0.9126 H   0  0  0  0  0  0
    1.7308    5.8603    0.2787 H   0  0  0  0  0  0
    3.9475    6.8391    0.1419 H   0  0  0  0  0  0
    4.6284    5.2732   -0.5849 H   0  0  0  0  0  0
  1  2  2  0  0  0
  1  6  1  0  0  0
  1  7  1  0  0  0
  2  3  1  0  0  0
  2 30  1  0  0  0
  3  4  2  0  0  0
  3 31  1  0  0  0
  4  5  1  0  0  0
  4 11  1  0  0  0
  5  6  2  0  0  0
  5 32  1  0  0  0
  6 33  1  0  0  0
  7 34  1  0  0  0
  8  9  1  0  0  0
  8 15  1  0  0  0
  9 10  2  0  0  0
  9 19  1  0  0  0
 10 11  1  0  0  0
 10 16  1  0  0  0
 11 12  2  0  0  0
 12 13  1  0  0  0
 12 24  1  0  0  0
 13 14  2  0  0  0
 13 23  1  0  0  0
 14 15  1  0  0  0
 14 20  1  0  0  0
 15 35  1  0  0  0
 15 36  1  0  0  0
 16 17  2  0  0  0
 16 37  1  0  0  0
 17 18  1  0  0  0
 17 38  1  0  0  0
 18 19  2  0  0  0
 18 26  1  0  0  0
 19 39  1  0  0  0
 20 21  2  0  0  0
 20 40  1  0  0  0
 21 22  1  0  0  0
 21 41  1  0  0  0
 22 23  2  0  0  0
 22 42  1  0  0  0
 23 43  1  0  0  0
 24 25  1  0  0  0
 24 44  1  0  0  0
 24 45  1  0  0  0
 25 46  1  0  0  0
 25 47  1  0  0  0
 25 48  1  0  0  0
 26 27  1  0  0  0
 27 28  1  0  0  0
 27 49  1  0  0  0
 27 50  1  0  0  0
 28 29  2  0  0  0
 28 51  1  0  0  0
 29 52  1  0  0  0
 29 53  1  0  0  0
M  END
>  <Name>
tox-9

>  <substance>
p -(3-(Alloxyl)-11-ethyl-6H - dibenzo[b,f ]thiocin-12-yl)phenol hemihydrate

>  <CASRN>
85850-88-0

>  <from_NCI>
0

>  <RBA>
9.200000

>  <method>
RUC

>  <chemical_class>
Triphenylethylene; Phenol

>  <set>
2

$$$$
tox-10
  Cerius2 12190218263D 1   1.00000                          
 Structure written by MMmdl.
 55 58  0  0  0  0  0  0  0  0999 V2000
    4.4945   -3.4783   -0.5372 C   0  0  0  0  0  0
    3.7465   -3.4968   -1.7091 C   0  0  0  0  0  0
    2.3728   -3.2497   -1.6556 C   0  0  0  0  0  0
    1.7466   -2.9873   -0.4278 C   0  0  0  0  0  0
    2.5176   -2.9669    0.7424 C   0  0  0  0  0  0
    3.8923   -3.2149    0.6890 C   0  0  0  0  0  0
    5.8328   -3.7247   -0.6282 O   0  0  0  0  0  0
   -0.2121   -1.3173   -0.2855 C   0  0  0  0  0  0
   -0.8590   -0.8584    0.8808 C   0  0  0  0  0  0
   -1.1228   -1.7985    2.0347 C   0  0  0  0  0  0
   -2.4313   -2.5886    1.9099 C   0  0  0  0  0  0
   -2.8970   -3.0326    0.5347 C   0  0  0  0  0  0
   -2.0631   -3.5538   -0.4767 C   0  0  0  0  0  0
   -0.5912   -3.7619   -0.3540 C   0  0  0  0  0  0
    0.2857   -2.7197   -0.3782 C   0  0  0  0  0  0
   -1.3019    0.4724    0.9445 C   0  0  0  0  0  0
   -1.0968    1.3522   -0.1229 C   0  0  0  0  0  0
   -0.4462    0.8964   -1.2688 C   0  0  0  0  0  0
   -0.0051   -0.4297   -1.3485 C   0  0  0  0  0  0
   -2.6340   -3.9041   -1.7189 C   0  0  0  0  0  0
   -4.0027   -3.7811   -1.9545 C   0  0  0  0  0  0
   -4.8301   -3.3028   -0.9499 C   0  0  0  0  0  0
   -4.2835   -2.9355    0.2794 C   0  0  0  0  0  0
   -0.1928   -5.2334   -0.3136 C   0  0  0  0  0  0
   -0.3309   -5.8149    1.0887 C   0  0  0  0  0  0
   -1.5776    2.6173    0.0794 O   0  0  0  0  0  0
   -1.3889    3.5599   -0.9797 C   0  0  0  0  0  0
   -2.0148    4.8503   -0.5392 C   0  0  0  0  0  0
   -1.3682    6.0200   -0.4438 C   0  0  0  0  0  0
    4.2236   -3.7019   -2.6644 H   0  0  0  0  0  0
    1.7926   -3.2661   -2.5768 H   0  0  0  0  0  0
    2.0554   -2.7604    1.7054 H   0  0  0  0  0  0
    4.4718   -3.1971    1.6089 H   0  0  0  0  0  0
    6.2177   -3.6777    0.2731 H   0  0  0  0  0  0
   -1.1382   -1.2294    2.9741 H   0  0  0  0  0  0
   -0.2827   -2.4893    2.1656 H   0  0  0  0  0  0
   -3.2144   -1.9505    2.3433 H   0  0  0  0  0  0
   -2.3798   -3.4728    2.5579 H   0  0  0  0  0  0
   -1.8165    0.8285    1.8362 H   0  0  0  0  0  0
   -0.2631    1.5405   -2.1245 H   0  0  0  0  0  0
    0.4975   -0.7636   -2.2547 H   0  0  0  0  0  0
   -2.0033   -4.2816   -2.5242 H   0  0  0  0  0  0
   -4.4179   -4.0626   -2.9200 H   0  0  0  0  0  0
   -5.9009   -3.2093   -1.1204 H   0  0  0  0  0  0
   -4.9573   -2.5579    1.0493 H   0  0  0  0  0  0
    0.8370   -5.3876   -0.6495 H   0  0  0  0  0  0
   -0.8039   -5.8234   -1.0072 H   0  0  0  0  0  0
   -0.0055   -6.8602    1.0953 H   0  0  0  0  0  0
   -1.3696   -5.7869    1.4337 H   0  0  0  0  0  0
    0.2844   -5.2655    1.8089 H   0  0  0  0  0  0
   -1.9003    3.2184   -1.8873 H   0  0  0  0  0  0
   -0.3193    3.6968   -1.1787 H   0  0  0  0  0  0
   -3.0746    4.8091   -0.2929 H   0  0  0  0  0  0
   -1.8869    6.9191   -0.1208 H   0  0  0  0  0  0
   -0.3118    6.1140   -0.6819 H   0  0  0  0  0  0
  1  2  2  0  0  0
  1  6  1  0  0  0
  1  7  1  0  0  0
  2  3  1  0  0  0
  2 30  1  0  0  0
  3  4  2  0  0  0
  3 31  1  0  0  0
  4  5  1  0  0  0
  4 15  1  0  0  0
  5  6  2  0  0  0
  5 32  1  0  0  0
  6 33  1  0  0  0
  7 34  1  0  0  0
  8  9  2  0  0  0
  8 15  1  0  0  0
  8 19  1  0  0  0
  9 10  1  0  0  0
  9 16  1  0  0  0
 10 11  1  0  0  0
 10 35  1  0  0  0
 10 36  1  0  0  0
 11 12  1  0  0  0
 11 37  1  0  0  0
 11 38  1  0  0  0
 12 13  2  0  0  0
 12 23  1  0  0  0
 13 14  1  0  0  0
 13 20  1  0  0  0
 14 15  2  0  0  0
 14 24  1  0  0  0
 16 17  2  0  0  0
 16 39  1  0  0  0
 17 18  1  0  0  0
 17 26  1  0  0  0
 18 19  2  0  0  0
 18 40  1  0  0  0
 19 41  1  0  0  0
 20 21  2  0  0  0
 20 42  1  0  0  0
 21 22  1  0  0  0
 21 43  1  0  0  0
 22 23  2  0  0  0
 22 44  1  0  0  0
 23 45  1  0  0  0
 24 25  1  0  0  0
 24 46  1  0  0  0
 24 47  1  0  0  0
 25 48  1  0  0  0
 25 49  1  0  0  0
 25 50  1  0  0  0
 26 27  1  0  0  0
 27 28  1  0  0  0
 27 51  1  0  0  0
 27 52  1  0  0  0
 28 29  2  0  0  0
 28 53  1  0  0  0
 29 54  1  0  0  0
 29 55  1  0  0  0
M  END
>  <Name>
tox-10

>  <substance>
p -(2-(Alloxyl)-6-ethyl-11,12-dihydrodibenzo[a,e ]cyclooctene-5- yl)phenol

>  <CASRN>
85850-87-9

>  <from_NCI>
0

>  <RBA>
15.000000

>  <method>
RUC

>  <chemical_class>
Triphenylethylene; Phenol

>  <set>
1

$$$$
tox-11
  Cerius2 12190218263D 1   1.00000                          
 Structure written by MMmdl.
 50 53  0  0  0  0  0  0  0  0999 V2000
    2.5469   -1.2948   -0.4732 O   0  0  0  0  0  0
    1.5519   -0.3464   -0.5397 C   0  0  0  0  0  0
    0.2012   -0.6991   -0.4407 C   0  0  0  0  0  0
   -0.2422   -2.1272   -0.3684 C   0  0  0  0  0  0
    0.3856   -3.0411    0.4293 C   0  0  0  0  0  0
    1.5794   -2.6906    1.2673 C   0  0  0  0  0  0
    2.6177   -1.8828    0.7706 C   0  0  0  0  0  0
   -0.7404    0.3392   -0.5063 C   0  0  0  0  0  0
   -0.3447    1.6761   -0.6684 C   0  0  0  0  0  0
    1.0040    2.0037   -0.7781 C   0  0  0  0  0  0
    1.9518    0.9818   -0.7245 C   0  0  0  0  0  0
    3.7855   -1.6426    1.5048 C   0  0  0  0  0  0
    3.9255   -2.1816    2.7789 C   0  0  0  0  0  0
    2.9038   -2.9628    3.3084 C   0  0  0  0  0  0
    1.7482   -3.2178    2.5589 C   0  0  0  0  0  0
   -1.3629   -2.5853   -1.2382 C   0  0  0  0  0  0
   -1.0960   -3.0015   -2.5508 C   0  0  0  0  0  0
   -2.1370   -3.4161   -3.3848 C   0  0  0  0  0  0
   -3.4442   -3.4065   -2.9105 C   0  0  0  0  0  0
   -3.7301   -2.9864   -1.6155 C   0  0  0  0  0  0
   -2.6883   -2.5722   -0.7810 C   0  0  0  0  0  0
   -4.4339   -3.8179   -3.7539 O   0  0  0  0  0  0
    0.0134   -4.5264    0.4711 C   0  0  0  0  0  0
   -1.1358   -4.8800    1.4103 C   0  0  0  0  0  0
    1.5237    3.2546   -0.9545 O   0  0  0  0  0  0
    0.6589    4.3886   -0.8243 C   0  0  0  0  0  0
    0.0950    4.7555   -2.1654 C   0  0  0  0  0  0
   -1.2053    4.9560   -2.4184 C   0  0  0  0  0  0
   -1.8062    0.1286   -0.4387 H   0  0  0  0  0  0
   -1.1275    2.4269   -0.7231 H   0  0  0  0  0  0
    3.0105    1.2170   -0.8108 H   0  0  0  0  0  0
    4.5774   -1.0248    1.0871 H   0  0  0  0  0  0
    4.8263   -1.9907    3.3588 H   0  0  0  0  0  0
    3.0050   -3.3861    4.3067 H   0  0  0  0  0  0
    0.9856   -3.8427    3.0152 H   0  0  0  0  0  0
   -0.0752   -3.0077   -2.9297 H   0  0  0  0  0  0
   -1.9215   -3.7419   -4.3996 H   0  0  0  0  0  0
   -4.7503   -2.9722   -1.2397 H   0  0  0  0  0  0
   -2.9174   -2.2395    0.2301 H   0  0  0  0  0  0
   -5.2904   -3.7543   -3.2796 H   0  0  0  0  0  0
    0.8924   -5.1216    0.7526 H   0  0  0  0  0  0
   -0.2313   -4.8874   -0.5350 H   0  0  0  0  0  0
   -1.2270   -5.9686    1.4883 H   0  0  0  0  0  0
   -2.0920   -4.5031    1.0420 H   0  0  0  0  0  0
   -0.9921   -4.4840    2.4183 H   0  0  0  0  0  0
    1.2906    5.2189   -0.4880 H   0  0  0  0  0  0
   -0.0995    4.2517   -0.0451 H   0  0  0  0  0  0
    0.8158    4.8739   -2.9725 H   0  0  0  0  0  0
   -1.5439    5.2260   -3.4154 H   0  0  0  0  0  0
   -1.9631    4.8589   -1.6454 H   0  0  0  0  0  0
  1  2  1  0  0  0
  1  7  1  0  0  0
  2  3  2  0  0  0
  2 11  1  0  0  0
  3  4  1  0  0  0
  3  8  1  0  0  0
  4  5  2  0  0  0
  4 16  1  0  0  0
  5  6  1  0  0  0
  5 23  1  0  0  0
  6  7  2  0  0  0
  6 15  1  0  0  0
  7 12  1  0  0  0
  8  9  2  0  0  0
  8 29  1  0  0  0
  9 10  1  0  0  0
  9 30  1  0  0  0
 10 11  2  0  0  0
 10 25  1  0  0  0
 11 31  1  0  0  0
 12 13  2  0  0  0
 12 32  1  0  0  0
 13 14  1  0  0  0
 13 33  1  0  0  0
 14 15  2  0  0  0
 14 34  1  0  0  0
 15 35  1  0  0  0
 16 17  2  0  0  0
 16 21  1  0  0  0
 17 18  1  0  0  0
 17 36  1  0  0  0
 18 19  2  0  0  0
 18 37  1  0  0  0
 19 20  1  0  0  0
 19 22  1  0  0  0
 20 21  2  0  0  0
 20 38  1  0  0  0
 21 39  1  0  0  0
 22 40  1  0  0  0
 23 24  1  0  0  0
 23 41  1  0  0  0
 23 42  1  0  0  0
 24 43  1  0  0  0
 24 44  1  0  0  0
 24 45  1  0  0  0
 25 26  1  0  0  0
 26 27  1  0  0  0
 26 46  1  0  0  0
 26 47  1  0  0  0
 27 28  2  0  0  0
 27 48  1  0  0  0
 28 49  1  0  0  0
 28 50  1  0  0  0
M  END
>  <Name>
tox-11

>  <substance>
3-(Alloxyl)-10-ethyl-11-(4- hydroxyphenyl)dibenz[b,f ]oxepin

>  <CASRN>
85850-85-7

>  <from_NCI>
0

>  <RBA>
0.200000

>  <method>
RUC

>  <chemical_class>
Triphenylethylene

>  <set>
0

$$$$
tox-12
  Cerius2 12190218263D 1   1.00000                          
 Structure written by MMmdl.
 49 52  0  0  0  0  0  0  0  0999 V2000
   -1.2532    0.8383   -0.5732 C   0  0  0  0  0  0
   -0.2694   -0.2868   -0.4557 C   0  0  0  0  0  0
   -2.5932    0.6257   -0.7262 C   0  0  0  0  0  0
   -0.7397    2.2375   -0.6050 C   0  0  0  0  0  0
   -0.1607   -1.3069   -1.4206 C   0  0  0  0  0  0
    0.6484   -0.2784    0.6073 C   0  0  0  0  0  0
   -3.1955   -0.7447   -0.7866 C   0  0  0  0  0  0
   -3.6053    1.7412   -1.0025 C   0  0  0  0  0  0
   -0.2350    2.7644   -1.8025 C   0  0  0  0  0  0
   -0.7234    3.0296    0.5504 C   0  0  0  0  0  0
   -1.3372   -1.4653   -2.7672 S   0  0  0  0  0  0
    0.8479   -2.2761   -1.3126 C   0  0  0  0  0  0
    1.6478   -1.2539    0.7128 C   0  0  0  0  0  0
   -2.7794   -1.7119   -1.7278 C   0  0  0  0  0  0
   -4.2490   -1.0797    0.0801 C   0  0  0  0  0  0
   -4.2356    2.3782    0.2308 C   0  0  0  0  0  0
    0.2607    4.0691   -1.8457 C   0  0  0  0  0  0
   -0.2273    4.3341    0.5046 C   0  0  0  0  0  0
    1.7542   -2.2542   -0.2498 C   0  0  0  0  0  0
   -3.4382   -2.9477   -1.8167 C   0  0  0  0  0  0
   -4.8954   -2.3162   -0.0076 C   0  0  0  0  0  0
    0.2624    4.8534   -0.6931 C   0  0  0  0  0  0
    2.6810   -3.2601   -0.2667 O   0  0  0  0  0  0
   -4.4980   -3.2451   -0.9626 C   0  0  0  0  0  0
    3.6317   -3.2856    0.8020 C   0  0  0  0  0  0
    4.5085   -4.4832    0.5836 C   0  0  0  0  0  0
    5.8409   -4.4404    0.4490 C   0  0  0  0  0  0
    0.6004    0.4952    1.3724 H   0  0  0  0  0  0
   -4.4052    1.3669   -1.6557 H   0  0  0  0  0  0
   -3.1341    2.5344   -1.5951 H   0  0  0  0  0  0
   -0.2296    2.1623   -2.7097 H   0  0  0  0  0  0
   -1.0947    2.6346    1.4943 H   0  0  0  0  0  0
    0.9250   -3.0678   -2.0562 H   0  0  0  0  0  0
    2.3259   -1.1915    1.5599 H   0  0  0  0  0  0
   -4.5787   -0.3875    0.8501 H   0  0  0  0  0  0
   -4.7535    3.3004   -0.0539 H   0  0  0  0  0  0
   -3.4952    2.6316    0.9928 H   0  0  0  0  0  0
   -4.9819    1.7248    0.6890 H   0  0  0  0  0  0
    0.6466    4.4731   -2.7799 H   0  0  0  0  0  0
   -0.2209    4.9447    1.4057 H   0  0  0  0  0  0
   -3.1181   -3.6968   -2.5392 H   0  0  0  0  0  0
   -5.7114   -2.5509    0.6740 H   0  0  0  0  0  0
    0.6494    5.8703   -0.7274 H   0  0  0  0  0  0
   -5.0009   -4.2079   -1.0316 H   0  0  0  0  0  0
    3.1187   -3.4020    1.7638 H   0  0  0  0  0  0
    4.2265   -2.3645    0.8013 H   0  0  0  0  0  0
    4.0027   -5.4465    0.5439 H   0  0  0  0  0  0
    6.4154   -5.3507    0.2972 H   0  0  0  0  0  0
    6.3927   -3.5046    0.4849 H   0  0  0  0  0  0
  1  2  1  0  0  0
  1  3  2  0  0  0
  1  4  1  0  0  0
  2  5  2  0  0  0
  2  6  1  0  0  0
  3  7  1  0  0  0
  3  8  1  0  0  0
  4  9  2  0  0  0
  4 10  1  0  0  0
  5 11  1  0  0  0
  5 12  1  0  0  0
  6 13  2  0  0  0
  6 28  1  0  0  0
  7 14  2  0  0  0
  7 15  1  0  0  0
  8 16  1  0  0  0
  8 29  1  0  0  0
  8 30  1  0  0  0
  9 17  1  0  0  0
  9 31  1  0  0  0
 10 18  2  0  0  0
 10 32  1  0  0  0
 11 14  1  0  0  0
 12 19  2  0  0  0
 12 33  1  0  0  0
 13 19  1  0  0  0
 13 34  1  0  0  0
 14 20  1  0  0  0
 15 21  2  0  0  0
 15 35  1  0  0  0
 16 36  1  0  0  0
 16 37  1  0  0  0
 16 38  1  0  0  0
 17 22  2  0  0  0
 17 39  1  0  0  0
 18 22  1  0  0  0
 18 40  1  0  0  0
 19 23  1  0  0  0
 20 24  2  0  0  0
 20 41  1  0  0  0
 21 24  1  0  0  0
 21 42  1  0  0  0
 22 43  1  0  0  0
 23 25  1  0  0  0
 24 44  1  0  0  0
 25 26  1  0  0  0
 25 45  1  0  0  0
 25 46  1  0  0  0
 26 27  2  0  0  0
 26 47  1  0  0  0
 27 48  1  0  0  0
 27 49  1  0  0  0
M  END
>  <Name>
tox-12

>  <substance>
3-(Alloxyl)-10-ethyl-11- phenyldibenzo[b,f ]thiepin

>  <CASRN>
85850-82-4

>  <from_NCI>
1

>  <RBA>
0.500000

>  <method>
RUC

>  <chemical_class>
Triphenylethylene

>  <set>
0

$$$$
tox-13
  Cerius2 12190218263D 1   1.00000                          
 Structure written by MMmdl.
 52 55  0  0  0  0  0  0  0  0999 V2000
   -1.6493    0.3974    0.6071 C   0  0  0  0  0  0
   -0.5195   -0.5780    0.5254 C   0  0  0  0  0  0
   -2.9129   -0.0434    0.8563 C   0  0  0  0  0  0
   -1.3926    1.8547    0.4917 C   0  0  0  0  0  0
   -0.2412   -1.4101   -0.5773 C   0  0  0  0  0  0
    0.3088   -0.6645    1.6606 C   0  0  0  0  0  0
   -3.1960   -1.5018    0.8914 C   0  0  0  0  0  0
   -4.1235    0.8360    1.1329 C   0  0  0  0  0  0
   -1.1178    2.6328    1.6246 C   0  0  0  0  0  0
   -1.4191    2.4672   -0.7682 C   0  0  0  0  0  0
    0.8727   -2.2777   -0.5244 C   0  0  0  0  0  0
   -1.1460   -1.4583   -2.1278 S   0  0  0  0  0  0
    1.3965   -1.5380    1.6993 C   0  0  0  0  0  0
   -3.1609   -2.2676   -0.2957 C   0  0  0  0  0  0
   -3.4531   -2.1312    2.1175 C   0  0  0  0  0  0
   -5.0381    1.0011   -0.0734 C   0  0  0  0  0  0
   -0.8772    4.0025    1.4983 C   0  0  0  0  0  0
   -1.1782    3.8371   -0.8920 C   0  0  0  0  0  0
    1.6876   -2.3477    0.6064 C   0  0  0  0  0  0
   -2.8954   -1.6204   -1.6337 C   0  0  0  0  0  0
   -3.3729   -3.6540   -0.2210 C   0  0  0  0  0  0
   -3.6711   -3.5081    2.1721 C   0  0  0  0  0  0
   -0.9077    4.6036    0.2408 C   0  0  0  0  0  0
    2.7811   -3.1535    0.7663 O   0  0  0  0  0  0
   -3.6286   -4.2681    1.0055 C   0  0  0  0  0  0
    3.1229   -4.0132   -0.3246 C   0  0  0  0  0  0
    4.3226   -4.8082    0.0986 C   0  0  0  0  0  0
    5.4947   -4.8260   -0.5505 C   0  0  0  0  0  0
    0.1084   -0.0502    2.5374 H   0  0  0  0  0  0
   -3.8226    1.8314    1.4754 H   0  0  0  0  0  0
   -4.7050    0.4212    1.9659 H   0  0  0  0  0  0
   -1.0969    2.1791    2.6138 H   0  0  0  0  0  0
   -1.6297    1.8821   -1.6617 H   0  0  0  0  0  0
    1.0818   -2.9018   -1.3900 H   0  0  0  0  0  0
    2.0164   -1.5797    2.5932 H   0  0  0  0  0  0
   -3.4697   -1.5548    3.0411 H   0  0  0  0  0  0
   -5.8741    1.6620    0.1782 H   0  0  0  0  0  0
   -5.4580    0.0419   -0.3928 H   0  0  0  0  0  0
   -4.5042    1.4443   -0.9200 H   0  0  0  0  0  0
   -0.6670    4.6010    2.3829 H   0  0  0  0  0  0
   -1.2016    4.3063   -1.8739 H   0  0  0  0  0  0
   -3.3600   -0.6322   -1.6931 H   0  0  0  0  0  0
   -3.3936   -2.2037   -2.4178 H   0  0  0  0  0  0
   -3.3415   -4.2649   -1.1226 H   0  0  0  0  0  0
   -3.8666   -3.9895    3.1286 H   0  0  0  0  0  0
   -0.7205    5.6716    0.1434 H   0  0  0  0  0  0
   -3.7937   -5.3433    1.0507 H   0  0  0  0  0  0
    3.3483   -3.4190   -1.2182 H   0  0  0  0  0  0
    2.3010   -4.7086   -0.5315 H   0  0  0  0  0  0
    4.2047   -5.4133    0.9959 H   0  0  0  0  0  0
    6.3230   -5.4303   -0.1889 H   0  0  0  0  0  0
    5.6614   -4.2429   -1.4526 H   0  0  0  0  0  0
  1  2  1  0  0  0
  1  3  2  0  0  0
  1  4  1  0  0  0
  2  5  2  0  0  0
  2  6  1  0  0  0
  3  7  1  0  0  0
  3  8  1  0  0  0
  4  9  2  0  0  0
  4 10  1  0  0  0
  5 11  1  0  0  0
  5 12  1  0  0  0
  6 13  2  0  0  0
  6 29  1  0  0  0
  7 14  2  0  0  0
  7 15  1  0  0  0
  8 16  1  0  0  0
  8 30  1  0  0  0
  8 31  1  0  0  0
  9 17  1  0  0  0
  9 32  1  0  0  0
 10 18  2  0  0  0
 10 33  1  0  0  0
 11 19  2  0  0  0
 11 34  1  0  0  0
 12 20  1  0  0  0
 13 19  1  0  0  0
 13 35  1  0  0  0
 14 20  1  0  0  0
 14 21  1  0  0  0
 15 22  2  0  0  0
 15 36  1  0  0  0
 16 37  1  0  0  0
 16 38  1  0  0  0
 16 39  1  0  0  0
 17 23  2  0  0  0
 17 40  1  0  0  0
 18 23  1  0  0  0
 18 41  1  0  0  0
 19 24  1  0  0  0
 20 42  1  0  0  0
 20 43  1  0  0  0
 21 25  2  0  0  0
 21 44  1  0  0  0
 22 25  1  0  0  0
 22 45  1  0  0  0
 23 46  1  0  0  0
 24 26  1  0  0  0
 25 47  1  0  0  0
 26 27  1  0  0  0
 26 48  1  0  0  0
 26 49  1  0  0  0
 27 28  2  0  0  0
 27 50  1  0  0  0
 28 51  1  0  0  0
 28 52  1  0  0  0
M  END
>  <Name>
tox-13

>  <substance>
3-(Alloxyl)-11-ethyl-12-phenyl 6H - dibenzo[b,f ]thiocin

>  <CASRN>
85850-84-6

>  <from_NCI>
1

>  <RBA>
0.100000

>  <method>
RUC

>  <chemical_class>
Triphenylethylene

>  <set>
0

$$$$
tox-14
  Cerius2 12190218263D 1   1.00000                          
 Structure written by MMmdl.
 49 52  0  0  0  0  0  0  0  0999 V2000
   -1.3760    0.5989    0.5338 C   0  0  0  0  0  0
   -0.3979   -0.5154    0.3259 C   0  0  0  0  0  0
   -2.7096    0.3676    0.7167 C   0  0  0  0  0  0
   -0.8748    2.0011    0.6070 C   0  0  0  0  0  0
   -0.4244   -1.6797    1.1028 C   0  0  0  0  0  0
    0.6451   -0.3858   -0.6041 C   0  0  0  0  0  0
   -3.2880   -1.0160    0.7506 C   0  0  0  0  0  0
   -3.7280    1.4730    1.0123 C   0  0  0  0  0  0
   -0.4200    2.5115    1.8312 C   0  0  0  0  0  0
   -0.8122    2.8098   -0.5356 C   0  0  0  0  0  0
   -1.4179   -1.9006    2.0291 O   0  0  0  0  0  0
    0.5635   -2.6635    0.9844 C   0  0  0  0  0  0
    1.6266   -1.3787   -0.7445 C   0  0  0  0  0  0
   -2.6503   -2.0653    1.4358 C   0  0  0  0  0  0
   -4.5313   -1.3051    0.1630 C   0  0  0  0  0  0
   -4.2835    2.1877   -0.2159 C   0  0  0  0  0  0
    0.0710    3.8161    1.9131 C   0  0  0  0  0  0
   -0.3203    4.1139   -0.4514 C   0  0  0  0  0  0
    1.5930   -2.5193    0.0551 C   0  0  0  0  0  0
   -3.2371   -3.3299    1.5659 C   0  0  0  0  0  0
   -5.1139   -2.5745    0.2695 C   0  0  0  0  0  0
    0.1190    4.6166    0.7726 C   0  0  0  0  0  0
    2.4897   -3.5511    0.0258 O   0  0  0  0  0  0
   -4.4707   -3.5847    0.9768 C   0  0  0  0  0  0
    3.5703   -3.4457   -0.9057 C   0  0  0  0  0  0
    4.3943   -4.6917   -0.7680 C   0  0  0  0  0  0
    5.6982   -4.7153   -0.4604 C   0  0  0  0  0  0
    0.7177    0.4957   -1.2388 H   0  0  0  0  0  0
   -3.2950    2.2205    1.6877 H   0  0  0  0  0  0
   -4.5675    1.0602    1.5876 H   0  0  0  0  0  0
   -0.4484    1.8955    2.7288 H   0  0  0  0  0  0
   -1.1473    2.4282   -1.4987 H   0  0  0  0  0  0
    0.5185   -3.5498    1.6136 H   0  0  0  0  0  0
    2.4052   -1.2153   -1.4852 H   0  0  0  0  0  0
   -5.0805   -0.5493   -0.3915 H   0  0  0  0  0  0
   -5.1050    2.8481    0.0815 H   0  0  0  0  0  0
   -4.6681    1.4945   -0.9676 H   0  0  0  0  0  0
   -3.5289    2.8113   -0.6992 H   0  0  0  0  0  0
    0.4182    4.2071    2.8678 H   0  0  0  0  0  0
   -0.2784    4.7373   -1.3427 H   0  0  0  0  0  0
   -2.7249   -4.1173    2.1145 H   0  0  0  0  0  0
   -6.0789   -2.7673   -0.1970 H   0  0  0  0  0  0
    0.5029    5.6333    0.8371 H   0  0  0  0  0  0
   -4.9277   -4.5683    1.0657 H   0  0  0  0  0  0
    4.1734   -2.5564   -0.6870 H   0  0  0  0  0  0
    3.1842   -3.3961   -1.9306 H   0  0  0  0  0  0
    3.8742   -5.6318   -0.9442 H   0  0  0  0  0  0
    6.2352   -5.6572   -0.3810 H   0  0  0  0  0  0
    6.2628   -3.8044   -0.2790 H   0  0  0  0  0  0
  1  2  1  0  0  0
  1  3  2  0  0  0
  1  4  1  0  0  0
  2  5  2  0  0  0
  2  6  1  0  0  0
  3  7  1  0  0  0
  3  8  1  0  0  0
  4  9  2  0  0  0
  4 10  1  0  0  0
  5 11  1  0  0  0
  5 12  1  0  0  0
  6 13  2  0  0  0
  6 28  1  0  0  0
  7 14  2  0  0  0
  7 15  1  0  0  0
  8 16  1  0  0  0
  8 29  1  0  0  0
  8 30  1  0  0  0
  9 17  1  0  0  0
  9 31  1  0  0  0
 10 18  2  0  0  0
 10 32  1  0  0  0
 11 14  1  0  0  0
 12 19  2  0  0  0
 12 33  1  0  0  0
 13 19  1  0  0  0
 13 34  1  0  0  0
 14 20  1  0  0  0
 15 21  2  0  0  0
 15 35  1  0  0  0
 16 36  1  0  0  0
 16 37  1  0  0  0
 16 38  1  0  0  0
 17 22  2  0  0  0
 17 39  1  0  0  0
 18 22  1  0  0  0
 18 40  1  0  0  0
 19 23  1  0  0  0
 20 24  2  0  0  0
 20 41  1  0  0  0
 21 24  1  0  0  0
 21 42  1  0  0  0
 22 43  1  0  0  0
 23 25  1  0  0  0
 24 44  1  0  0  0
 25 26  1  0  0  0
 25 45  1  0  0  0
 25 46  1  0  0  0
 26 27  2  0  0  0
 26 47  1  0  0  0
 27 48  1  0  0  0
 27 49  1  0  0  0
M  END
>  <Name>
tox-14

>  <substance>
3-(Alloxyl)-10-ethyl-11- phenyldibenz[b,f ]oxepin

>  <CASRN>
83807-07-2

>  <from_NCI>
1

>  <RBA>
0.100000

>  <method>
RUC

>  <chemical_class>
Triphenylethylene

>  <set>
2

$$$$
tox-15
  Cerius2 12190218263D 1   1.00000                          
 Structure written by MMmdl.
 54 57  0  0  0  0  0  0  0  0999 V2000
   -1.6850    0.4742   -0.7306 C   0  0  0  0  0  0
   -0.5621   -0.5069   -0.7662 C   0  0  0  0  0  0
   -2.9673    0.0454   -0.5622 C   0  0  0  0  0  0
   -1.3969    1.9315   -0.7958 C   0  0  0  0  0  0
   -0.2474   -1.2849    0.3697 C   0  0  0  0  0  0
    0.2240   -0.6278   -1.9172 C   0  0  0  0  0  0
   -3.3370   -1.3963   -0.6590 C   0  0  0  0  0  0
   -4.1720    0.9609   -0.3673 C   0  0  0  0  0  0
   -1.5948    2.6384   -1.9912 C   0  0  0  0  0  0
   -0.9071    2.6133    0.3252 C   0  0  0  0  0  0
    0.8350   -2.1832    0.3237 C   0  0  0  0  0  0
   -1.0972   -1.1946    1.6183 C   0  0  0  0  0  0
    1.3000   -1.5187   -1.9460 C   0  0  0  0  0  0
   -3.0530   -2.3775    0.3132 C   0  0  0  0  0  0
   -4.0227   -1.7774   -1.8329 C   0  0  0  0  0  0
   -4.5675    1.0657    1.1012 C   0  0  0  0  0  0
   -1.3205    4.0061   -2.0579 C   0  0  0  0  0  0
   -0.6320    3.9811    0.2560 C   0  0  0  0  0  0
    1.6119   -2.2991   -0.8303 C   0  0  0  0  0  0
   -2.3059   -2.1371    1.6127 C   0  0  0  0  0  0
   -3.5215   -3.6935    0.0967 C   0  0  0  0  0  0
   -4.4584   -3.0866   -2.0332 C   0  0  0  0  0  0
   -0.8405    4.6765   -0.9340 C   0  0  0  0  0  0
    2.6874   -3.1287   -0.9969 O   0  0  0  0  0  0
   -4.2140   -4.0450   -1.0617 C   0  0  0  0  0  0
    3.0795   -3.9189    0.1290 C   0  0  0  0  0  0
    4.2636   -4.7368   -0.2944 C   0  0  0  0  0  0
    5.4617   -4.7116    0.3052 C   0  0  0  0  0  0
    0.0055   -0.0322   -2.8019 H   0  0  0  0  0  0
   -5.0338    0.6029   -0.9430 H   0  0  0  0  0  0
   -3.9854    1.9700   -0.7466 H   0  0  0  0  0  0
   -1.9683    2.1269   -2.8771 H   0  0  0  0  0  0
   -0.7372    2.0869    1.2621 H   0  0  0  0  0  0
    1.0429   -2.7805    1.2076 H   0  0  0  0  0  0
   -0.4777   -1.4142    2.4982 H   0  0  0  0  0  0
   -1.4279   -0.1640    1.7868 H   0  0  0  0  0  0
    1.8989   -1.5994   -2.8516 H   0  0  0  0  0  0
   -4.2270   -1.0408   -2.6103 H   0  0  0  0  0  0
   -5.4159    1.7487    1.2139 H   0  0  0  0  0  0
   -3.7420    1.4519    1.7085 H   0  0  0  0  0  0
   -4.8655    0.0934    1.5062 H   0  0  0  0  0  0
   -1.4814    4.5481   -2.9881 H   0  0  0  0  0  0
   -0.2533    4.5039    1.1328 H   0  0  0  0  0  0
   -1.9352   -3.1074    1.9726 H   0  0  0  0  0  0
   -3.0274   -1.7978    2.3666 H   0  0  0  0  0  0
   -3.3390   -4.4686    0.8417 H   0  0  0  0  0  0
   -4.9909   -3.3513   -2.9443 H   0  0  0  0  0  0
   -0.6261    5.7427   -0.9865 H   0  0  0  0  0  0
   -4.5558   -5.0687   -1.2033 H   0  0  0  0  0  0
    2.2705   -4.6013    0.4136 H   0  0  0  0  0  0
    3.3405   -3.2704    0.9739 H   0  0  0  0  0  0
    4.1105   -5.3971   -1.1465 H   0  0  0  0  0  0
    6.2774   -5.3358   -0.0513 H   0  0  0  0  0  0
    5.6621   -4.0725    1.1612 H   0  0  0  0  0  0
  1  2  1  0  0  0
  1  3  2  0  0  0
  1  4  1  0  0  0
  2  5  2  0  0  0
  2  6  1  0  0  0
  3  7  1  0  0  0
  3  8  1  0  0  0
  4  9  2  0  0  0
  4 10  1  0  0  0
  5 11  1  0  0  0
  5 12  1  0  0  0
  6 13  2  0  0  0
  6 29  1  0  0  0
  7 14  2  0  0  0
  7 15  1  0  0  0
  8 16  1  0  0  0
  8 30  1  0  0  0
  8 31  1  0  0  0
  9 17  1  0  0  0
  9 32  1  0  0  0
 10 18  2  0  0  0
 10 33  1  0  0  0
 11 19  2  0  0  0
 11 34  1  0  0  0
 12 20  1  0  0  0
 12 35  1  0  0  0
 12 36  1  0  0  0
 13 19  1  0  0  0
 13 37  1  0  0  0
 14 20  1  0  0  0
 14 21  1  0  0  0
 15 22  2  0  0  0
 15 38  1  0  0  0
 16 39  1  0  0  0
 16 40  1  0  0  0
 16 41  1  0  0  0
 17 23  2  0  0  0
 17 42  1  0  0  0
 18 23  1  0  0  0
 18 43  1  0  0  0
 19 24  1  0  0  0
 20 44  1  0  0  0
 20 45  1  0  0  0
 21 25  2  0  0  0
 21 46  1  0  0  0
 22 25  1  0  0  0
 22 47  1  0  0  0
 23 48  1  0  0  0
 24 26  1  0  0  0
 25 49  1  0  0  0
 26 27  1  0  0  0
 26 50  1  0  0  0
 26 51  1  0  0  0
 27 28  2  0  0  0
 27 52  1  0  0  0
 28 53  1  0  0  0
 28 54  1  0  0  0
M  END
>  <Name>
tox-15

>  <substance>
3-(Alloxyl)-11-ethyl-12-phenyl 5,6- dihydroxydibenz[a,e ]cyclooctene

>  <CASRN>
85850-83-5

>  <from_NCI>
1

>  <RBA>
0.400000

>  <method>
RUC

>  <chemical_class>
Triphenylethylene

>  <set>
0

$$$$
tox-16
  Cerius2 12190218263D 1   1.00000                          
 Structure written by MMmdl.
 49 52  0  0  0  0  0  0  0  0999 V2000
   -2.8822   -0.3897    0.4067 C   0  0  0  0  0  0
   -4.2716   -0.2568    0.1557 C   0  0  0  0  0  0
   -2.0450    0.7580    0.2994 C   0  0  0  0  0  0
   -2.3915   -1.6699    0.7563 C   0  0  0  0  0  0
   -4.7989    0.9965   -0.1787 C   0  0  0  0  0  0
   -5.1143   -1.3765    0.2465 C   0  0  0  0  0  0
   -2.6018    2.0170   -0.0152 C   0  0  0  0  0  0
   -0.6559    0.6511    0.5530 N   0  0  0  0  0  0
   -3.2337   -2.7811    0.8462 C   0  0  0  0  0  0
   -3.9728    2.1266   -0.2581 C   0  0  0  0  0  0
   -4.5949   -2.6282    0.5944 C   0  0  0  0  0  0
   -1.7404    3.0892   -0.0603 O   0  0  0  0  0  0
   -0.0384    0.4683   -0.5220 N   0  0  0  0  0  0
   -4.7577    3.6884   -0.6747 S   0  0  0  0  0  0
   -5.7040   -4.0476    0.6794 S   0  0  0  0  0  0
    1.3517    0.3751   -0.2824 C   0  0  0  0  0  0
   -3.6613    4.6558   -0.6771 O   0  0  0  0  0  0
   -5.3435    3.4552   -1.9913 O   0  0  0  0  0  0
   -5.7283    3.8980    0.3955 O   0  0  0  0  0  0
   -6.5701   -3.9052   -0.4887 O   0  0  0  0  0  0
   -4.8347   -5.2202    0.6174 O   0  0  0  0  0  0
   -6.3846   -3.8773    1.9603 O   0  0  0  0  0  0
    2.0504   -0.8416   -0.5046 C   0  0  0  0  0  0
    2.0477    1.5188    0.1302 C   0  0  0  0  0  0
    3.4559   -0.9097   -0.2789 C   0  0  0  0  0  0
    1.3710   -1.9995   -0.9493 C   0  0  0  0  0  0
    3.4178    1.4736    0.3547 C   0  0  0  0  0  0
    4.1193    0.2759    0.1576 C   0  0  0  0  0  0
    4.0931   -2.1580   -0.5097 C   0  0  0  0  0  0
    2.0314   -3.2068   -1.1655 C   0  0  0  0  0  0
    5.9084    0.2989    0.4732 S   0  0  0  0  0  0
    3.3947   -3.2865   -0.9439 C   0  0  0  0  0  0
    6.5076   -0.0486   -0.8124 O   0  0  0  0  0  0
    6.2159    1.6626    0.8996 O   0  0  0  0  0  0
    6.1028   -0.6896    1.5304 O   0  0  0  0  0  0
   -1.3318   -1.8143    0.9660 H   0  0  0  0  0  0
   -5.8659    1.1075   -0.3733 H   0  0  0  0  0  0
   -6.1819   -1.2807    0.0522 H   0  0  0  0  0  0
   -2.8198   -3.7500    1.1156 H   0  0  0  0  0  0
   -2.2506    3.9025   -0.2987 H   0  0  0  0  0  0
    1.5099    2.4537    0.2789 H   0  0  0  0  0  0
    0.2974   -1.9714   -1.1364 H   0  0  0  0  0  0
    3.9260    2.3782    0.6807 H   0  0  0  0  0  0
    5.1644   -2.2770   -0.3543 H   0  0  0  0  0  0
    1.4777   -4.0794   -1.5063 H   0  0  0  0  0  0
    3.9228   -4.2240   -1.1086 H   0  0  0  0  0  0
   -3.9639    5.4266   -0.8690 H   0  0  0  0  0  0
   -7.1244   -4.5493   -0.5107 H   0  0  0  0  0  0
    7.3542   -0.0567   -0.7374 H   0  0  0  0  0  0
  1  2  2  0  0  0
  1  3  1  0  0  0
  1  4  1  0  0  0
  2  5  1  0  0  0
  2  6  1  0  0  0
  3  7  2  0  0  0
  3  8  1  0  0  0
  4  9  2  0  0  0
  4 36  1  0  0  0
  5 10  2  0  0  0
  5 37  1  0  0  0
  6 11  2  0  0  0
  6 38  1  0  0  0
  7 10  1  0  0  0
  7 12  1  0  0  0
  8 13  2  0  0  0
  9 11  1  0  0  0
  9 39  1  0  0  0
 10 14  1  0  0  0
 11 15  1  0  0  0
 12 40  1  0  0  0
 13 16  1  0  0  0
 14 17  1  0  0  0
 14 18  2  0  0  0
 14 19  2  0  0  0
 15 20  1  0  0  0
 15 21  2  0  0  0
 15 22  2  0  0  0
 16 23  2  0  0  0
 16 24  1  0  0  0
 17 47  1  0  0  0
 20 48  1  0  0  0
 23 25  1  0  0  0
 23 26  1  0  0  0
 24 27  2  0  0  0
 24 41  1  0  0  0
 25 28  2  0  0  0
 25 29  1  0  0  0
 26 30  2  0  0  0
 26 42  1  0  0  0
 27 28  1  0  0  0
 27 43  1  0  0  0
 28 31  1  0  0  0
 29 32  2  0  0  0
 29 44  1  0  0  0
 30 32  1  0  0  0
 30 45  1  0  0  0
 31 33  1  0  0  0
 31 34  2  0  0  0
 31 35  2  0  0  0
 32 46  1  0  0  0
 33 49  1  0  0  0
M  END
>  <Name>
tox-16

>  <substance>
Amaranth

>  <CASRN>
915-67-3

>  <from_NCI>
1

>  <RBA>
0.000000

>  <method>
RUC

>  <chemical_class>
Azo compound

>  <set>
1

$$$$
tox-17
  Cerius2 12190218263D 1   1.00000                          
 Structure written by MMmdl.
 46 49  0  0  0  0  0  0  0  0999 V2000
   -4.1564   -1.3371   -0.3762 C   0  0  0  0  0  0
   -5.3862   -1.9439   -0.3968 O   0  0  0  0  0  0
   -4.0471   -0.0570    0.1747 C   0  0  0  0  0  0
   -2.7803    0.5351    0.2324 C   0  0  0  0  0  0
   -3.0468   -1.9864   -0.9108 C   0  0  0  0  0  0
   -1.7838   -1.3700   -0.8853 C   0  0  0  0  0  0
   -0.6164   -2.1340   -1.4663 C   0  0  0  0  0  0
    0.6424   -1.2936   -1.6580 C   0  0  0  0  0  0
    0.8914   -0.4408   -0.4126 C   0  0  0  0  0  0
    2.2166    0.3192   -0.4766 C   0  0  0  0  0  0
    3.5133   -0.4577   -0.6867 C   0  0  0  0  0  0
    4.6092    0.5061   -0.1957 C   0  0  0  0  0  0
    3.8784    1.6961    0.4561 C   0  0  0  0  0  0
    4.6064    2.1841    1.5723 O   0  0  0  0  0  0
    2.4870    1.1302    0.8077 C   0  0  0  0  0  0
    2.5596    0.2850    2.1050 C   0  0  0  0  0  0
    1.3766    2.1796    0.9474 C   0  0  0  0  0  0
   -0.0250    1.5389    0.9402 C   0  0  0  0  0  0
   -0.2694    0.5895   -0.2637 C   0  0  0  0  0  0
   -1.6319   -0.1043   -0.2791 C   0  0  0  0  0  0
   -5.1388    0.5706    0.7593 N   0  0  0  0  0  0
   -5.2872   -2.8275   -0.8086 H   0  0  0  0  0  0
   -2.7032    1.5232    0.6804 H   0  0  0  0  0  0
   -3.1508   -2.9768   -1.3507 H   0  0  0  0  0  0
   -0.9006   -2.5653   -2.4338 H   0  0  0  0  0  0
   -0.3899   -2.9668   -0.7882 H   0  0  0  0  0  0
    0.5310   -0.6491   -2.5395 H   0  0  0  0  0  0
    1.4866   -1.9629   -1.8571 H   0  0  0  0  0  0
    0.8976   -1.1158    0.4529 H   0  0  0  0  0  0
    2.1420    1.0203   -1.3248 H   0  0  0  0  0  0
    3.6639   -0.7281   -1.7367 H   0  0  0  0  0  0
    3.5273   -1.3832   -0.1004 H   0  0  0  0  0  0
    5.2241    0.8558   -1.0326 H   0  0  0  0  0  0
    5.2844    0.0024    0.5053 H   0  0  0  0  0  0
    3.7977    2.5109   -0.2746 H   0  0  0  0  0  0
    4.0745    2.9172    1.9473 H   0  0  0  0  0  0
    2.7611    0.9266    2.9708 H   0  0  0  0  0  0
    3.3547   -0.4663    2.0709 H   0  0  0  0  0  0
    1.6283   -0.2466    2.3170 H   0  0  0  0  0  0
    1.4333    2.8954    0.1169 H   0  0  0  0  0  0
    1.5090    2.7639    1.8658 H   0  0  0  0  0  0
   -0.7505    2.3604    0.9276 H   0  0  0  0  0  0
   -0.1940    0.9978    1.8790 H   0  0  0  0  0  0
   -0.2661    1.2254   -1.1627 H   0  0  0  0  0  0
   -5.1074    1.5579    0.9962 H   0  0  0  0  0  0
   -6.0610    0.1695    0.5989 H   0  0  0  0  0  0
  1  2  1  0  0  0
  1  3  2  0  0  0
  1  5  1  0  0  0
  2 22  1  0  0  0
  3  4  1  0  0  0
  3 21  1  0  0  0
  4 20  2  0  0  0
  4 23  1  0  0  0
  5  6  2  0  0  0
  5 24  1  0  0  0
  6  7  1  0  0  0
  6 20  1  0  0  0
  7  8  1  0  0  0
  7 25  1  0  0  0
  7 26  1  0  0  0
  8  9  1  0  0  0
  8 27  1  0  0  0
  8 28  1  0  0  0
  9 10  1  0  0  0
  9 19  1  0  0  0
  9 29  1  0  0  0
 10 11  1  0  0  0
 10 15  1  0  0  0
 10 30  1  0  0  0
 11 12  1  0  0  0
 11 31  1  0  0  0
 11 32  1  0  0  0
 12 13  1  0  0  0
 12 33  1  0  0  0
 12 34  1  0  0  0
 13 14  1  0  0  0
 13 15  1  0  0  0
 13 35  1  0  0  0
 14 36  1  0  0  0
 15 16  1  0  0  0
 15 17  1  0  0  0
 16 37  1  0  0  0
 16 38  1  0  0  0
 16 39  1  0  0  0
 17 18  1  0  0  0
 17 40  1  0  0  0
 17 41  1  0  0  0
 18 19  1  0  0  0
 18 42  1  0  0  0
 18 43  1  0  0  0
 19 20  1  0  0  0
 19 44  1  0  0  0
 21 45  1  0  0  0
 21 46  1  0  0  0
M  END
>  <Name>
tox-17

>  <substance>
2-Aminoestratriene-3,17b-diol

>  <CASRN>
107900-30-1

>  <from_NCI>
0

>  <RBA>
12.000000

>  <method>
MCF-7 cytosol

>  <chemical_class>
Steroid, phenolic

>  <set>
1

$$$$
tox-18
  Cerius2 12190218263D 1   1.00000                          
 Structure written by MMmdl.
 46 49  0  0  0  0  0  0  0  0999 V2000
   -4.2299   -0.7416   -0.4757 C   0  0  0  0  0  0
   -5.4964   -1.2526   -0.5876 O   0  0  0  0  0  0
   -4.1027    0.5197    0.0835 C   0  0  0  0  0  0
   -2.8450    1.1125    0.1513 C   0  0  0  0  0  0
   -3.1193   -1.4603   -0.9457 C   0  0  0  0  0  0
   -1.8539   -0.8231   -0.9438 C   0  0  0  0  0  0
   -0.6584   -1.5515   -1.5293 C   0  0  0  0  0  0
    0.5989   -0.7042   -1.6940 C   0  0  0  0  0  0
    0.8260    0.1359   -0.4403 C   0  0  0  0  0  0
    2.1509    0.8983   -0.4793 C   0  0  0  0  0  0
    3.4523    0.1233   -0.6667 C   0  0  0  0  0  0
    4.5379    1.0874   -0.1540 C   0  0  0  0  0  0
    3.7938    2.2761    0.4848 C   0  0  0  0  0  0
    4.5002    2.7641    1.6148 O   0  0  0  0  0  0
    2.3968    1.7080    0.8101 C   0  0  0  0  0  0
    2.4460    0.8620    2.1078 C   0  0  0  0  0  0
    1.2825    2.7551    0.9282 C   0  0  0  0  0  0
   -0.1172    2.1112    0.8950 C   0  0  0  0  0  0
   -0.3402    1.1584   -0.3121 C   0  0  0  0  0  0
   -1.7018    0.4576   -0.3431 C   0  0  0  0  0  0
   -3.3075   -2.7256   -1.5073 N   0  0  0  0  0  0
   -5.4301   -1.9700   -1.2533 H   0  0  0  0  0  0
   -4.9772    1.0540    0.4466 H   0  0  0  0  0  0
   -2.7852    2.1115    0.5777 H   0  0  0  0  0  0
   -0.9154   -1.9535   -2.5166 H   0  0  0  0  0  0
   -0.4275   -2.3989   -0.8708 H   0  0  0  0  0  0
    0.4977   -0.0529   -2.5719 H   0  0  0  0  0  0
    1.4484   -1.3684   -1.8884 H   0  0  0  0  0  0
    0.8189   -0.5440    0.4214 H   0  0  0  0  0  0
    2.0906    1.6002   -1.3280 H   0  0  0  0  0  0
    3.6227   -0.1452   -1.7142 H   0  0  0  0  0  0
    3.4566   -0.8031   -0.0817 H   0  0  0  0  0  0
    5.1685    1.4384   -0.9787 H   0  0  0  0  0  0
    5.1999    0.5836    0.5592 H   0  0  0  0  0  0
    3.7257    3.0914   -0.2467 H   0  0  0  0  0  0
    3.9608    3.4965    1.9800 H   0  0  0  0  0  0
    2.6297    1.5032    2.9778 H   0  0  0  0  0  0
    3.2430    0.1122    2.0883 H   0  0  0  0  0  0
    1.5119    0.3283    2.3013 H   0  0  0  0  0  0
    1.3531    3.4708    0.0987 H   0  0  0  0  0  0
    1.3963    3.3401    1.8487 H   0  0  0  0  0  0
   -0.8427    2.9324    0.8684 H   0  0  0  0  0  0
   -0.3024    1.5715    1.8316 H   0  0  0  0  0  0
   -0.3281    1.7935   -1.2115 H   0  0  0  0  0  0
   -2.4953   -3.2647   -1.7950 H   0  0  0  0  0  0
   -4.0526   -3.3192   -1.1516 H   0  0  0  0  0  0
  1  2  1  0  0  0
  1  3  2  0  0  0
  1  5  1  0  0  0
  2 22  1  0  0  0
  3  4  1  0  0  0
  3 23  1  0  0  0
  4 20  2  0  0  0
  4 24  1  0  0  0
  5  6  2  0  0  0
  5 21  1  0  0  0
  6  7  1  0  0  0
  6 20  1  0  0  0
  7  8  1  0  0  0
  7 25  1  0  0  0
  7 26  1  0  0  0
  8  9  1  0  0  0
  8 27  1  0  0  0
  8 28  1  0  0  0
  9 10  1  0  0  0
  9 19  1  0  0  0
  9 29  1  0  0  0
 10 11  1  0  0  0
 10 15  1  0  0  0
 10 30  1  0  0  0
 11 12  1  0  0  0
 11 31  1  0  0  0
 11 32  1  0  0  0
 12 13  1  0  0  0
 12 33  1  0  0  0
 12 34  1  0  0  0
 13 14  1  0  0  0
 13 15  1  0  0  0
 13 35  1  0  0  0
 14 36  1  0  0  0
 15 16  1  0  0  0
 15 17  1  0  0  0
 16 37  1  0  0  0
 16 38  1  0  0  0
 16 39  1  0  0  0
 17 18  1  0  0  0
 17 40  1  0  0  0
 17 41  1  0  0  0
 18 19  1  0  0  0
 18 42  1  0  0  0
 18 43  1  0  0  0
 19 20  1  0  0  0
 19 44  1  0  0  0
 21 45  1  0  0  0
 21 46  1  0  0  0
M  END
>  <Name>
tox-18

>  <substance>
4-Aminoestratriene-3,17b-diol

>  <CASRN>
107900-31-2

>  <from_NCI>
0

>  <RBA>
16.000000

>  <method>
MCF-7 cytosol

>  <chemical_class>
Steroid, phenolic

>  <set>
0

$$$$
tox-19
  Cerius2 12190218263D 1   1.00000                          
 Structure written by MMmdl.
 45 48  0  0  0  0  0  0  0  0999 V2000
   -4.1731   -1.2906   -0.5215 C   0  0  0  0  0  0
   -4.0501   -0.0516    0.0994 C   0  0  0  0  0  0
   -2.7877    0.5499    0.1513 C   0  0  0  0  0  0
   -3.0514   -1.9363   -1.0426 C   0  0  0  0  0  0
   -1.7815   -1.3427   -0.9711 C   0  0  0  0  0  0
   -0.6100   -2.1094   -1.5382 C   0  0  0  0  0  0
    0.6576   -1.2753   -1.6990 C   0  0  0  0  0  0
    0.8900   -0.4353   -0.4415 C   0  0  0  0  0  0
    2.2193    0.3192   -0.4765 C   0  0  0  0  0  0
    3.5159   -0.4613   -0.6737 C   0  0  0  0  0  0
    4.6079    0.4929   -0.1558 C   0  0  0  0  0  0
    3.8717    1.6796    0.4960 C   0  0  0  0  0  0
    4.5839    2.1535    1.6284 O   0  0  0  0  0  0
    2.4725    1.1162    0.8200 C   0  0  0  0  0  0
    2.5210    0.2578    2.1097 C   0  0  0  0  0  0
    1.3644    2.1690    0.9526 C   0  0  0  0  0  0
   -0.0396    1.5343    0.9166 C   0  0  0  0  0  0
   -0.2683    0.5991   -0.3012 C   0  0  0  0  0  0
   -1.6327   -0.0885   -0.3448 C   0  0  0  0  0  0
   -5.1707    0.6256    0.5452 N   0  0  0  0  0  0
   -5.1469   -1.7690   -0.6080 H   0  0  0  0  0  0
   -2.7171    1.5435    0.5886 H   0  0  0  0  0  0
   -3.1759   -2.9104   -1.5154 H   0  0  0  0  0  0
   -0.8789   -2.5297   -2.5148 H   0  0  0  0  0  0
   -0.4016   -2.9502   -0.8641 H   0  0  0  0  0  0
    0.5661   -0.6219   -2.5763 H   0  0  0  0  0  0
    1.5011   -1.9482   -1.8893 H   0  0  0  0  0  0
    0.8790   -1.1188    0.4173 H   0  0  0  0  0  0
    2.1614    1.0290   -1.3188 H   0  0  0  0  0  0
    3.6821   -0.7220   -1.7239 H   0  0  0  0  0  0
    3.5167   -1.3925   -0.0964 H   0  0  0  0  0  0
    5.2374    0.8482   -0.9794 H   0  0  0  0  0  0
    5.2697   -0.0206    0.5507 H   0  0  0  0  0  0
    3.8060    2.5019   -0.2278 H   0  0  0  0  0  0
    4.0494    2.8855    2.0018 H   0  0  0  0  0  0
    2.7112    0.8898    2.9851 H   0  0  0  0  0  0
    3.3136   -0.4964    2.0807 H   0  0  0  0  0  0
    1.5845   -0.2722    2.3014 H   0  0  0  0  0  0
    1.4373    2.8930    0.1305 H   0  0  0  0  0  0
    1.4845    2.7434    1.8790 H   0  0  0  0  0  0
   -0.7618    2.3587    0.9018 H   0  0  0  0  0  0
   -0.2255    0.9838    1.8467 H   0  0  0  0  0  0
   -0.2477    1.2441   -1.1934 H   0  0  0  0  0  0
   -5.0721    1.4607    1.1177 H   0  0  0  0  0  0
   -6.0614    0.1413    0.6305 H   0  0  0  0  0  0
  1  2  2  0  0  0
  1  4  1  0  0  0
  1 21  1  0  0  0
  2  3  1  0  0  0
  2 20  1  0  0  0
  3 19  2  0  0  0
  3 22  1  0  0  0
  4  5  2  0  0  0
  4 23  1  0  0  0
  5  6  1  0  0  0
  5 19  1  0  0  0
  6  7  1  0  0  0
  6 24  1  0  0  0
  6 25  1  0  0  0
  7  8  1  0  0  0
  7 26  1  0  0  0
  7 27  1  0  0  0
  8  9  1  0  0  0
  8 18  1  0  0  0
  8 28  1  0  0  0
  9 10  1  0  0  0
  9 14  1  0  0  0
  9 29  1  0  0  0
 10 11  1  0  0  0
 10 30  1  0  0  0
 10 31  1  0  0  0
 11 12  1  0  0  0
 11 32  1  0  0  0
 11 33  1  0  0  0
 12 13  1  0  0  0
 12 14  1  0  0  0
 12 34  1  0  0  0
 13 35  1  0  0  0
 14 15  1  0  0  0
 14 16  1  0  0  0
 15 36  1  0  0  0
 15 37  1  0  0  0
 15 38  1  0  0  0
 16 17  1  0  0  0
 16 39  1  0  0  0
 16 40  1  0  0  0
 17 18  1  0  0  0
 17 41  1  0  0  0
 17 42  1  0  0  0
 18 19  1  0  0  0
 18 43  1  0  0  0
 20 44  1  0  0  0
 20 45  1  0  0  0
M  END
>  <Name>
tox-19

>  <substance>
2-Aminoestratrien-17b-ol

>  <CASRN>
17522-06-4

>  <from_NCI>
0

>  <RBA>
4.000000

>  <method>
MCF-7 cytosol

>  <chemical_class>
Steroid, nonphenolic

>  <set>
0

$$$$
tox-20
  Cerius2 12190218263D 1   1.00000                          
 Structure written by MMmdl.
 45 48  0  0  0  0  0  0  0  0999 V2000
   -4.3465   -0.7175   -0.6082 C   0  0  0  0  0  0
   -4.2163    0.5486   -0.0487 C   0  0  0  0  0  0
   -2.9604    1.1419    0.0424 C   0  0  0  0  0  0
   -3.2286   -1.4139   -1.0771 C   0  0  0  0  0  0
   -1.9578   -0.7919   -1.0329 C   0  0  0  0  0  0
   -0.7572   -1.5291   -1.5961 C   0  0  0  0  0  0
    0.5101   -0.6908   -1.7299 C   0  0  0  0  0  0
    0.7163    0.1424   -0.4674 C   0  0  0  0  0  0
    2.0468    0.8958   -0.4741 C   0  0  0  0  0  0
    3.3467    0.1130   -0.6381 C   0  0  0  0  0  0
    4.4275    1.0673   -0.0975 C   0  0  0  0  0  0
    3.6779    2.2575    0.5320 C   0  0  0  0  0  0
    4.3634    2.7350    1.6791 O   0  0  0  0  0  0
    2.2707    1.6971    0.8247 C   0  0  0  0  0  0
    2.2870    0.8437    2.1185 C   0  0  0  0  0  0
    1.1611    2.7511    0.9254 C   0  0  0  0  0  0
   -0.2419    2.1170    0.8588 C   0  0  0  0  0  0
   -0.4449    1.1731   -0.3587 C   0  0  0  0  0  0
   -1.8097    0.4830   -0.4238 C   0  0  0  0  0  0
   -3.4253   -2.6504   -1.6770 N   0  0  0  0  0  0
   -5.3378   -1.1630   -0.6748 H   0  0  0  0  0  0
   -5.0966    1.0772    0.3125 H   0  0  0  0  0  0
   -2.9065    2.1393    0.4733 H   0  0  0  0  0  0
   -0.9969   -1.9271   -2.5894 H   0  0  0  0  0  0
   -0.5480   -2.3806   -0.9356 H   0  0  0  0  0  0
    0.4328   -0.0348   -2.6067 H   0  0  0  0  0  0
    1.3586   -1.3605   -1.9087 H   0  0  0  0  0  0
    0.6861   -0.5414    0.3905 H   0  0  0  0  0  0
    2.0094    1.6027   -1.3201 H   0  0  0  0  0  0
    3.5374   -0.1512   -1.6832 H   0  0  0  0  0  0
    3.3325   -0.8164   -0.0581 H   0  0  0  0  0  0
    5.0776    1.4184   -0.9067 H   0  0  0  0  0  0
    5.0711    0.5553    0.6269 H   0  0  0  0  0  0
    3.6305    3.0770   -0.1965 H   0  0  0  0  0  0
    3.8212    3.4692    2.0367 H   0  0  0  0  0  0
    2.4564    1.4790    2.9957 H   0  0  0  0  0  0
    3.0794    0.0887    2.1116 H   0  0  0  0  0  0
    1.3456    0.3152    2.2893 H   0  0  0  0  0  0
    1.2541    3.4711    0.1018 H   0  0  0  0  0  0
    1.2592    3.3300    1.8516 H   0  0  0  0  0  0
   -0.9616    2.9428    0.8220 H   0  0  0  0  0  0
   -0.4505    1.5727    1.7878 H   0  0  0  0  0  0
   -0.4081    1.8133   -1.2539 H   0  0  0  0  0  0
   -2.6425   -3.2667   -1.8732 H   0  0  0  0  0  0
   -4.3248   -3.1178   -1.5892 H   0  0  0  0  0  0
  1  2  2  0  0  0
  1  4  1  0  0  0
  1 21  1  0  0  0
  2  3  1  0  0  0
  2 22  1  0  0  0
  3 19  2  0  0  0
  3 23  1  0  0  0
  4  5  2  0  0  0
  4 20  1  0  0  0
  5  6  1  0  0  0
  5 19  1  0  0  0
  6  7  1  0  0  0
  6 24  1  0  0  0
  6 25  1  0  0  0
  7  8  1  0  0  0
  7 26  1  0  0  0
  7 27  1  0  0  0
  8  9  1  0  0  0
  8 18  1  0  0  0
  8 28  1  0  0  0
  9 10  1  0  0  0
  9 14  1  0  0  0
  9 29  1  0  0  0
 10 11  1  0  0  0
 10 30  1  0  0  0
 10 31  1  0  0  0
 11 12  1  0  0  0
 11 32  1  0  0  0
 11 33  1  0  0  0
 12 13  1  0  0  0
 12 14  1  0  0  0
 12 34  1  0  0  0
 13 35  1  0  0  0
 14 15  1  0  0  0
 14 16  1  0  0  0
 15 36  1  0  0  0
 15 37  1  0  0  0
 15 38  1  0  0  0
 16 17  1  0  0  0
 16 39  1  0  0  0
 16 40  1  0  0  0
 17 18  1  0  0  0
 17 41  1  0  0  0
 17 42  1  0  0  0
 18 19  1  0  0  0
 18 43  1  0  0  0
 20 44  1  0  0  0
 20 45  1  0  0  0
M  END
>  <Name>
tox-20

>  <substance>
4-Aminoestratrien-17b-ol

>  <CASRN>
17522-04-2

>  <from_NCI>
0

>  <RBA>
0.200000

>  <method>
MCF-7 cytosol

>  <chemical_class>
Steroid, nonphenolic

>  <set>
0

$$$$
tox-21
  Cerius2 12190218263D 1   1.00000                          
 Structure written by MMmdl.
 27 28  0  0  0  0  0  0  0  0999 V2000
   -0.4053   -0.0489    2.2995 C   0  0  0  0  0  0
    0.9070   -0.4581    2.3544 O   0  0  0  0  0  0
   -1.3614   -0.9061    2.8406 C   0  0  0  0  0  0
   -0.7901    1.1951    1.7986 C   0  0  0  0  0  0
    1.6646   -0.3083    1.2159 C   0  0  0  0  0  0
   -2.7085   -0.5304    2.8514 C   0  0  0  0  0  0
   -2.1400    1.5626    1.8138 C   0  0  0  0  0  0
    1.2378   -0.7465   -0.0380 C   0  0  0  0  0  0
    2.9421    0.2268    1.3671 C   0  0  0  0  0  0
   -3.1082    0.7143    2.3579 C   0  0  0  0  0  0
    2.0792   -0.6039   -1.1467 C   0  0  0  0  0  0
    3.7761    0.3656    0.2531 C   0  0  0  0  0  0
   -4.4461    1.0565    2.3154 N   0  0  0  0  0  0
    3.3428   -0.0208   -1.0180 C   0  0  0  0  0  0
    4.1947    0.0563   -2.1040 N   0  0  0  0  0  0
   -1.0670   -1.8718    3.2455 H   0  0  0  0  0  0
   -0.0546    1.8876    1.3962 H   0  0  0  0  0  0
   -3.4452   -1.2213    3.2579 H   0  0  0  0  0  0
   -2.4274    2.5286    1.4019 H   0  0  0  0  0  0
    0.2628   -1.2106   -0.1655 H   0  0  0  0  0  0
    3.2952    0.5369    2.3480 H   0  0  0  0  0  0
    1.7355   -0.9574   -2.1174 H   0  0  0  0  0  0
    4.7731    0.7811    0.3896 H   0  0  0  0  0  0
   -4.7303    2.0031    2.0745 H   0  0  0  0  0  0
   -5.1374    0.5046    2.8178 H   0  0  0  0  0  0
    5.0541    0.5978   -2.0445 H   0  0  0  0  0  0
    3.8406   -0.0962   -3.0456 H   0  0  0  0  0  0
  1  2  1  0  0  0
  1  3  2  0  0  0
  1  4  1  0  0  0
  2  5  1  0  0  0
  3  6  1  0  0  0
  3 16  1  0  0  0
  4  7  2  0  0  0
  4 17  1  0  0  0
  5  8  2  0  0  0
  5  9  1  0  0  0
  6 10  2  0  0  0
  6 18  1  0  0  0
  7 10  1  0  0  0
  7 19  1  0  0  0
  8 11  1  0  0  0
  8 20  1  0  0  0
  9 12  2  0  0  0
  9 21  1  0  0  0
 10 13  1  0  0  0
 11 14  2  0  0  0
 11 22  1  0  0  0
 12 14  1  0  0  0
 12 23  1  0  0  0
 13 24  1  0  0  0
 13 25  1  0  0  0
 14 15  1  0  0  0
 15 26  1  0  0  0
 15 27  1  0  0  0
M  END
>  <Name>
tox-21

>  <substance>
4-Aminophenyl ether

>  <CASRN>
101-80-4

>  <from_NCI>
1

>  <RBA>
0.000000

>  <method>
RUC

>  <chemical_class>
Aniline

>  <set>
2

$$$$
tox-22
  Cerius2 12190218263D 1   1.00000                          
 Structure written by MMmdl.
 28 28  0  0  0  0  0  0  0  0999 V2000
   -0.0437   -1.6635    0.0647 C   0  0  0  0  0  0
   -0.0346   -0.1181    0.0432 C   0  0  0  0  0  0
    0.6245   -2.1596   -1.2540 C   0  0  0  0  0  0
   -1.4718   -2.2491    0.1776 C   0  0  0  0  0  0
    0.7392   -2.1717    1.2992 C   0  0  0  0  0  0
   -1.1910    0.6494   -0.1292 C   0  0  0  0  0  0
    1.1663    0.5941    0.1691 C   0  0  0  0  0  0
    0.7089   -3.6714   -1.4361 C   0  0  0  0  0  0
   -1.1411    2.0583   -0.1545 C   0  0  0  0  0  0
    1.1966    2.0021    0.1410 C   0  0  0  0  0  0
    0.0481    2.7946   -0.0189 C   0  0  0  0  0  0
    0.0817    4.0655   -0.0426 O   0  0  0  0  0  0
    1.6458   -1.7630   -1.3260 H   0  0  0  0  0  0
    0.0808   -1.7441   -2.1135 H   0  0  0  0  0  0
   -1.4559   -3.3370    0.3065 H   0  0  0  0  0  0
   -2.0664   -2.0395   -0.7190 H   0  0  0  0  0  0
   -2.0046   -1.8384    1.0437 H   0  0  0  0  0  0
    0.6394   -3.2557    1.4238 H   0  0  0  0  0  0
    0.3687   -1.7042    2.2196 H   0  0  0  0  0  0
    1.8108   -1.9574    1.2267 H   0  0  0  0  0  0
   -2.1685    0.1877   -0.2525 H   0  0  0  0  0  0
    2.1149    0.0712    0.2853 H   0  0  0  0  0  0
    1.2219   -3.9012   -2.3762 H   0  0  0  0  0  0
   -0.2826   -4.1295   -1.4873 H   0  0  0  0  0  0
    1.2748   -4.1454   -0.6295 H   0  0  0  0  0  0
   -2.0892    2.5875   -0.2898 H   0  0  0  0  0  0
    2.1735    2.4827    0.2480 H   0  0  0  0  0  0
    0.8838    4.3296    0.0540 H   0  0  0  0  0  0
  1  2  1  0  0  0
  1  3  1  0  0  0
  1  4  1  0  0  0
  1  5  1  0  0  0
  2  6  2  0  0  0
  2  7  1  0  0  0
  3  8  1  0  0  0
  3 13  1  0  0  0
  3 14  1  0  0  0
  4 15  1  0  0  0
  4 16  1  0  0  0
  4 17  1  0  0  0
  5 18  1  0  0  0
  5 19  1  0  0  0
  5 20  1  0  0  0
  6  9  1  0  0  0
  6 21  1  0  0  0
  7 10  2  0  0  0
  7 22  1  0  0  0
  8 23  1  0  0  0
  8 24  1  0  0  0
  8 25  1  0  0  0
  9 11  2  0  0  0
  9 26  1  0  0  0
 10 11  1  0  0  0
 10 27  1  0  0  0
 11 12  1  0  0  0
 12 28  1  0  0  0
M  END
>  <Name>
tox-22

>  <substance>
4-tert -Amylphenol

>  <CASRN>
80-46-6

>  <from_NCI>
1

>  <RBA>
0.000300

>  <method>
hERa,RUC

>  <chemical_class>
Alkylphenol

>  <set>
0

$$$$
tox-23
  Cerius2 12190218263D 1   1.00000                          
 Structure written by MMmdl.
 53 56  0  0  0  0  0  0  0  0999 V2000
   -6.8270   -4.7081   16.7791 C   0  0  0  0  0  0
   -5.3915   -4.1992   16.8107 C   0  0  0  0  0  0
   -4.6574   -4.3889   15.4787 C   0  0  0  0  0  0
   -7.6611   -4.1542   15.6156 C   0  0  0  0  0  0
   -6.9024   -4.0123   14.2572 C   0  0  0  0  0  0
   -5.5830   -4.8407   14.3325 C   0  0  0  0  0  0
   -4.8181   -4.8766   13.0036 C   0  0  0  0  0  0
   -5.6895   -5.4241   11.8774 C   0  0  0  0  0  0
   -7.7801   -4.5832   13.0776 C   0  0  0  0  0  0
   -6.9962   -4.6353   11.7261 C   0  0  0  0  0  0
   -9.9956   -4.4591   11.7493 C   0  0  0  0  0  0
   -9.1633   -3.8916   12.9147 C   0  0  0  0  0  0
   -9.2010   -4.4492   10.4363 C   0  0  0  0  0  0
   -7.9049   -5.2544   10.6575 C   0  0  0  0  0  0
   -7.3636   -5.4512    9.2437 C   0  0  0  0  0  0
   -8.6270   -5.6023    8.3771 C   0  0  0  0  0  0
   -9.8218   -5.2800    9.2957 C   0  0  0  0  0  0
   -8.9820   -2.9852    9.9759 C   0  0  0  0  0  0
  -10.8450   -4.5927    8.6006 O   0  0  0  0  0  0
   -6.8148   -5.8038   16.7150 H   0  0  0  0  0  0
   -3.8917   -5.1645   15.6135 H   0  0  0  0  0  0
   -8.5199   -4.8277   15.5080 H   0  0  0  0  0  0
   -3.9320   -5.5151   13.1055 H   0  0  0  0  0  0
   -4.4504   -3.8788   12.7384 H   0  0  0  0  0  0
   -5.9124   -6.4805   12.0760 H   0  0  0  0  0  0
   -5.1175   -5.3934   10.9432 H   0  0  0  0  0  0
   -8.0045   -5.6290   13.3423 H   0  0  0  0  0  0
   -6.7275   -3.6196   11.4171 H   0  0  0  0  0  0
  -10.9235   -3.8842   11.6448 H   0  0  0  0  0  0
  -10.2948   -5.4846   12.0018 H   0  0  0  0  0  0
   -9.0377   -2.8153   12.7654 H   0  0  0  0  0  0
   -9.7515   -4.0029   13.8322 H   0  0  0  0  0  0
   -8.1784   -6.2601   11.0188 H   0  0  0  0  0  0
   -6.7223   -6.3353    9.1687 H   0  0  0  0  0  0
   -6.7763   -4.5867    8.9146 H   0  0  0  0  0  0
   -8.7156   -6.6236    7.9904 H   0  0  0  0  0  0
   -8.5839   -4.9363    7.5079 H   0  0  0  0  0  0
  -10.2479   -6.2127    9.6858 H   0  0  0  0  0  0
   -8.4648   -2.9228    9.0132 H   0  0  0  0  0  0
   -8.3943   -2.3998   10.6878 H   0  0  0  0  0  0
   -9.9428   -2.4707    9.8585 H   0  0  0  0  0  0
  -11.1187   -5.1495    7.8511 H   0  0  0  0  0  0
   -7.3360   -4.4563   17.7177 H   0  0  0  0  0  0
   -5.4038   -2.8194   17.1707 O   0  0  0  0  0  0
   -4.1153   -3.4767   15.2011 H   0  0  0  0  0  0
   -8.0858   -3.1869   15.9137 H   0  0  0  0  0  0
   -6.6033   -2.5079   14.0234 C   0  0  0  0  0  0
   -5.8638   -5.8834   14.5479 H   0  0  0  0  0  0
   -6.0967   -2.3232   13.0731 H   0  0  0  0  0  0
   -7.5200   -1.9095   14.0234 H   0  0  0  0  0  0
   -5.9684   -2.0874   14.8071 H   0  0  0  0  0  0
   -4.8470   -4.7217   17.6059 H   0  0  0  0  0  0
   -4.4847   -2.5561   17.3551 H   0  0  0  0  0  0
  1  2  1  0  0  0
  1  4  1  0  0  0
  1 20  1  0  0  0
  1 43  1  0  0  0
  2  3  1  0  0  0
  2 44  1  0  0  0
  2 52  1  0  0  0
  3  6  1  0  0  0
  3 21  1  0  0  0
  3 45  1  0  0  0
  4  5  1  0  0  0
  4 22  1  0  0  0
  4 46  1  0  0  0
  5  6  1  0  0  0
  5  9  1  0  0  0
  5 47  1  0  0  0
  6  7  1  0  0  0
  6 48  1  0  0  0
  7  8  1  0  0  0
  7 23  1  0  0  0
  7 24  1  0  0  0
  8 10  1  0  0  0
  8 25  1  0  0  0
  8 26  1  0  0  0
  9 10  1  0  0  0
  9 12  1  0  0  0
  9 27  1  0  0  0
 10 14  1  0  0  0
 10 28  1  0  0  0
 11 12  1  0  0  0
 11 13  1  0  0  0
 11 29  1  0  0  0
 11 30  1  0  0  0
 12 31  1  0  0  0
 12 32  1  0  0  0
 13 14  1  0  0  0
 13 17  1  0  0  0
 13 18  1  0  0  0
 14 15  1  0  0  0
 14 33  1  0  0  0
 15 16  1  0  0  0
 15 34  1  0  0  0
 15 35  1  0  0  0
 16 17  1  0  0  0
 16 36  1  0  0  0
 16 37  1  0  0  0
 17 19  1  0  0  0
 17 38  1  0  0  0
 18 39  1  0  0  0
 18 40  1  0  0  0
 18 41  1  0  0  0
 19 42  1  0  0  0
 44 53  1  0  0  0
 47 49  1  0  0  0
 47 50  1  0  0  0
 47 51  1  0  0  0
M  END
>  <Name>
tox-23

>  <substance>
3b-Androstanediol

>  <CASRN>
25126-76-5

>  <from_NCI>
1

>  <RBA>
3.000000

>  <method>
hERa

>  <chemical_class>
Steroid, nonphenolic

>  <set>
2

$$$$
tox-24
  Cerius2 12190218263D 1   1.00000                          
 Structure written by MMmdl.
 53 56  0  0  0  0  0  0  0  0999 V2000
   -6.8398   -4.7051   16.7739 C   0  0  0  0  0  0
   -5.4362   -4.1240   16.7564 C   0  0  0  0  0  0
   -4.6755   -4.4777   15.4754 C   0  0  0  0  0  0
   -7.6904   -4.2414   15.5893 C   0  0  0  0  0  0
   -6.9095   -4.0503   14.2490 C   0  0  0  0  0  0
   -5.5960   -4.8872   14.3124 C   0  0  0  0  0  0
   -4.8196   -4.8985   12.9900 C   0  0  0  0  0  0
   -5.6849   -5.4107   11.8448 C   0  0  0  0  0  0
   -7.7791   -4.5832   13.0540 C   0  0  0  0  0  0
   -6.9905   -4.6188   11.7067 C   0  0  0  0  0  0
   -9.9908   -4.4287   11.7406 C   0  0  0  0  0  0
   -9.1498   -3.8689   12.8999 C   0  0  0  0  0  0
   -9.1976   -4.4307   10.4271 C   0  0  0  0  0  0
   -7.9010   -5.2349   10.6400 C   0  0  0  0  0  0
   -7.3688   -5.4371    9.2240 C   0  0  0  0  0  0
   -8.6414   -5.5980    8.3720 C   0  0  0  0  0  0
   -9.8253   -5.2751    9.3047 C   0  0  0  0  0  0
   -8.9808   -2.9709    9.9516 C   0  0  0  0  0  0
  -10.8622   -4.5963    8.6272 O   0  0  0  0  0  0
   -6.7768   -5.8019   16.7720 H   0  0  0  0  0  0
   -3.9631   -5.2911   15.6657 H   0  0  0  0  0  0
   -8.4873   -4.9863   15.4694 H   0  0  0  0  0  0
   -3.9389   -5.5462   13.0831 H   0  0  0  0  0  0
   -4.4421   -3.8973   12.7513 H   0  0  0  0  0  0
   -5.9089   -6.4721   12.0116 H   0  0  0  0  0  0
   -5.1095   -5.3532   10.9134 H   0  0  0  0  0  0
   -8.0188   -5.6317   13.2956 H   0  0  0  0  0  0
   -6.7248   -3.5988   11.4093 H   0  0  0  0  0  0
  -10.9120   -3.8431   11.6357 H   0  0  0  0  0  0
  -10.3014   -5.4499   11.9960 H   0  0  0  0  0  0
   -9.0063   -2.7953   12.7458 H   0  0  0  0  0  0
   -9.7352   -3.9682   13.8206 H   0  0  0  0  0  0
   -8.1737   -6.2404   11.0037 H   0  0  0  0  0  0
   -6.7259   -6.3204    9.1494 H   0  0  0  0  0  0
   -6.7868   -4.5728    8.8852 H   0  0  0  0  0  0
   -8.7302   -6.6227    7.9944 H   0  0  0  0  0  0
   -8.6119   -4.9375    7.4983 H   0  0  0  0  0  0
  -10.2379   -6.2082    9.7093 H   0  0  0  0  0  0
   -8.4703   -2.9167    8.9849 H   0  0  0  0  0  0
   -8.3880   -2.3803   10.6551 H   0  0  0  0  0  0
   -9.9418   -2.4565    9.8356 H   0  0  0  0  0  0
  -11.1697   -5.1810    7.9144 H   0  0  0  0  0  0
   -7.3439   -4.4541   17.7154 H   0  0  0  0  0  0
   -4.0569   -3.6166   15.1915 H   0  0  0  0  0  0
   -8.1998   -3.3081   15.8612 H   0  0  0  0  0  0
   -6.6000   -2.5412   14.0649 C   0  0  0  0  0  0
   -5.8884   -5.9321   14.5025 H   0  0  0  0  0  0
   -6.0862   -2.3329   13.1226 H   0  0  0  0  0  0
   -7.5134   -1.9387   14.0771 H   0  0  0  0  0  0
   -5.9671   -2.1470   14.8643 H   0  0  0  0  0  0
   -4.7251   -4.6232   17.8828 O   0  0  0  0  0  0
   -5.4961   -3.0362   16.8737 H   0  0  0  0  0  0
   -3.8431   -4.2140   17.8737 H   0  0  0  0  0  0
  1  2  1  0  0  0
  1  4  1  0  0  0
  1 20  1  0  0  0
  1 43  1  0  0  0
  2  3  1  0  0  0
  2 51  1  0  0  0
  2 52  1  0  0  0
  3  6  1  0  0  0
  3 21  1  0  0  0
  3 44  1  0  0  0
  4  5  1  0  0  0
  4 22  1  0  0  0
  4 45  1  0  0  0
  5  6  1  0  0  0
  5  9  1  0  0  0
  5 46  1  0  0  0
  6  7  1  0  0  0
  6 47  1  0  0  0
  7  8  1  0  0  0
  7 23  1  0  0  0
  7 24  1  0  0  0
  8 10  1  0  0  0
  8 25  1  0  0  0
  8 26  1  0  0  0
  9 10  1  0  0  0
  9 12  1  0  0  0
  9 27  1  0  0  0
 10 14  1  0  0  0
 10 28  1  0  0  0
 11 12  1  0  0  0
 11 13  1  0  0  0
 11 29  1  0  0  0
 11 30  1  0  0  0
 12 31  1  0  0  0
 12 32  1  0  0  0
 13 14  1  0  0  0
 13 17  1  0  0  0
 13 18  1  0  0  0
 14 15  1  0  0  0
 14 33  1  0  0  0
 15 16  1  0  0  0
 15 34  1  0  0  0
 15 35  1  0  0  0
 16 17  1  0  0  0
 16 36  1  0  0  0
 16 37  1  0  0  0
 17 19  1  0  0  0
 17 38  1  0  0  0
 18 39  1  0  0  0
 18 40  1  0  0  0
 18 41  1  0  0  0
 19 42  1  0  0  0
 46 48  1  0  0  0
 46 49  1  0  0  0
 46 50  1  0  0  0
 51 53  1  0  0  0
M  END
>  <Name>
tox-24

>  <substance>
5a-Androstane-3a,17b-diol

>  <CASRN>
1852-53-5

>  <from_NCI>
1

>  <RBA>
0.000700

>  <method>
MCF-7 cytosol,MUC,RUC

>  <chemical_class>
Steroid, nonphenolic

>  <set>
0

$$$$
tox-25
  Cerius2 12190218263D 1   1.00000                          
 Structure written by MMmdl.
 53 56  0  0  0  0  0  0  0  0999 V2000
   -6.8270   -4.7081   16.7791 C   0  0  0  0  0  0
   -5.3915   -4.1992   16.8107 C   0  0  0  0  0  0
   -4.6574   -4.3889   15.4787 C   0  0  0  0  0  0
   -7.6611   -4.1542   15.6156 C   0  0  0  0  0  0
   -6.9024   -4.0123   14.2572 C   0  0  0  0  0  0
   -5.5830   -4.8407   14.3325 C   0  0  0  0  0  0
   -4.8181   -4.8766   13.0036 C   0  0  0  0  0  0
   -5.6895   -5.4241   11.8774 C   0  0  0  0  0  0
   -7.7801   -4.5832   13.0776 C   0  0  0  0  0  0
   -6.9962   -4.6353   11.7261 C   0  0  0  0  0  0
   -9.9956   -4.4591   11.7493 C   0  0  0  0  0  0
   -9.1633   -3.8916   12.9147 C   0  0  0  0  0  0
   -9.2010   -4.4492   10.4363 C   0  0  0  0  0  0
   -7.9049   -5.2544   10.6575 C   0  0  0  0  0  0
   -7.3636   -5.4512    9.2437 C   0  0  0  0  0  0
   -8.6270   -5.6023    8.3771 C   0  0  0  0  0  0
   -9.8218   -5.2800    9.2957 C   0  0  0  0  0  0
   -8.9820   -2.9852    9.9759 C   0  0  0  0  0  0
  -10.8450   -4.5927    8.6006 O   0  0  0  0  0  0
   -6.8148   -5.8038   16.7150 H   0  0  0  0  0  0
   -3.8917   -5.1645   15.6135 H   0  0  0  0  0  0
   -8.5199   -4.8277   15.5080 H   0  0  0  0  0  0
   -3.9320   -5.5151   13.1055 H   0  0  0  0  0  0
   -4.4504   -3.8788   12.7384 H   0  0  0  0  0  0
   -5.9124   -6.4805   12.0760 H   0  0  0  0  0  0
   -5.1175   -5.3934   10.9432 H   0  0  0  0  0  0
   -8.0045   -5.6290   13.3423 H   0  0  0  0  0  0
   -6.7275   -3.6196   11.4171 H   0  0  0  0  0  0
  -10.9235   -3.8842   11.6448 H   0  0  0  0  0  0
  -10.2948   -5.4846   12.0018 H   0  0  0  0  0  0
   -9.0377   -2.8153   12.7654 H   0  0  0  0  0  0
   -9.7515   -4.0029   13.8322 H   0  0  0  0  0  0
   -8.1784   -6.2601   11.0188 H   0  0  0  0  0  0
   -6.7223   -6.3353    9.1687 H   0  0  0  0  0  0
   -6.7763   -4.5867    8.9146 H   0  0  0  0  0  0
   -8.7156   -6.6236    7.9904 H   0  0  0  0  0  0
   -8.5839   -4.9363    7.5079 H   0  0  0  0  0  0
  -10.2479   -6.2127    9.6858 H   0  0  0  0  0  0
   -8.4648   -2.9228    9.0132 H   0  0  0  0  0  0
   -8.3943   -2.3998   10.6878 H   0  0  0  0  0  0
   -9.9428   -2.4707    9.8585 H   0  0  0  0  0  0
  -11.1187   -5.1495    7.8511 H   0  0  0  0  0  0
   -7.3360   -4.4563   17.7177 H   0  0  0  0  0  0
   -5.4038   -2.8194   17.1707 O   0  0  0  0  0  0
   -4.1153   -3.4767   15.2011 H   0  0  0  0  0  0
   -8.0858   -3.1869   15.9137 H   0  0  0  0  0  0
   -6.6033   -2.5079   14.0234 C   0  0  0  0  0  0
   -5.8638   -5.8834   14.5479 H   0  0  0  0  0  0
   -6.0967   -2.3232   13.0731 H   0  0  0  0  0  0
   -7.5200   -1.9095   14.0234 H   0  0  0  0  0  0
   -5.9684   -2.0874   14.8071 H   0  0  0  0  0  0
   -4.8470   -4.7217   17.6059 H   0  0  0  0  0  0
   -4.4847   -2.5561   17.3551 H   0  0  0  0  0  0
  1  2  1  0  0  0
  1  4  1  0  0  0
  1 20  1  0  0  0
  1 43  1  0  0  0
  2  3  1  0  0  0
  2 44  1  0  0  0
  2 52  1  0  0  0
  3  6  1  0  0  0
  3 21  1  0  0  0
  3 45  1  0  0  0
  4  5  1  0  0  0
  4 22  1  0  0  0
  4 46  1  0  0  0
  5  6  1  0  0  0
  5  9  1  0  0  0
  5 47  1  0  0  0
  6  7  1  0  0  0
  6 48  1  0  0  0
  7  8  1  0  0  0
  7 23  1  0  0  0
  7 24  1  0  0  0
  8 10  1  0  0  0
  8 25  1  0  0  0
  8 26  1  0  0  0
  9 10  1  0  0  0
  9 12  1  0  0  0
  9 27  1  0  0  0
 10 14  1  0  0  0
 10 28  1  0  0  0
 11 12  1  0  0  0
 11 13  1  0  0  0
 11 29  1  0  0  0
 11 30  1  0  0  0
 12 31  1  0  0  0
 12 32  1  0  0  0
 13 14  1  0  0  0
 13 17  1  0  0  0
 13 18  1  0  0  0
 14 15  1  0  0  0
 14 33  1  0  0  0
 15 16  1  0  0  0
 15 34  1  0  0  0
 15 35  1  0  0  0
 16 17  1  0  0  0
 16 36  1  0  0  0
 16 37  1  0  0  0
 17 19  1  0  0  0
 17 38  1  0  0  0
 18 39  1  0  0  0
 18 40  1  0  0  0
 18 41  1  0  0  0
 19 42  1  0  0  0
 44 53  1  0  0  0
 47 49  1  0  0  0
 47 50  1  0  0  0
 47 51  1  0  0  0
M  END
>  <Name>
tox-25

>  <substance>
5a-Androstane-3b,17b-diol

>  <CASRN>
571-20-0

>  <from_NCI>
1

>  <RBA>
0.200000

>  <method>
hERa,MCF-7 cytosol,MUC,RUC

>  <chemical_class>
Steroid, nonphenolic

>  <set>
0

$$$$
tox-26
  Cerius2 12190218263D 1   1.00000                          
 Structure written by MMmdl.
 53 56  0  0  0  0  0  0  0  0999 V2000
   -1.6354   -2.0022    3.5309 C   0  0  0  0  0  0
   -1.6250   -0.4594    3.5691 C   0  0  0  0  0  0
   -0.1927    0.0794    3.6237 C   0  0  0  0  0  0
   -0.8092   -2.4815    2.3150 C   0  0  0  0  0  0
    0.6433   -1.9350    2.3348 C   0  0  0  0  0  0
    1.4310   -2.4716    1.1262 C   0  0  0  0  0  0
    1.0262   -1.8242   -0.1947 C   0  0  0  0  0  0
    1.0986   -0.2926   -0.1337 C   0  0  0  0  0  0
    0.5850    0.3448   -1.4317 C   0  0  0  0  0  0
    1.2101   -0.0782   -2.7583 C   0  0  0  0  0  0
    0.8445    1.0620   -3.7345 C   0  0  0  0  0  0
    0.1294    2.1645   -2.8931 C   0  0  0  0  0  0
    0.7011    1.8938   -1.4490 C   0  0  0  0  0  0
    2.1690    2.3870   -1.2582 C   0  0  0  0  0  0
   -0.1727    2.4230   -0.2939 C   0  0  0  0  0  0
    0.2253    1.8164    1.0652 C   0  0  0  0  0  0
    0.2657    0.2644    1.0658 C   0  0  0  0  0  0
    0.7070   -0.3741    2.4381 C   0  0  0  0  0  0
    2.1515    0.0554    2.8090 C   0  0  0  0  0  0
   -2.8858   -2.4057    3.3725 O   0  0  0  0  0  0
    0.4186    3.3579   -3.3838 O   0  0  0  0  0  0
   -1.0799   -2.3330    4.4217 H   0  0  0  0  0  0
   -2.1626   -0.1022    4.4590 H   0  0  0  0  0  0
   -2.1460   -0.0270    2.7038 H   0  0  0  0  0  0
    0.2558   -0.2663    4.5660 H   0  0  0  0  0  0
   -0.2198    1.1715    3.7026 H   0  0  0  0  0  0
   -1.3054   -2.1972    1.3773 H   0  0  0  0  0  0
   -0.7677   -3.5808    2.3122 H   0  0  0  0  0  0
    1.1166   -2.3563    3.2338 H   0  0  0  0  0  0
    1.3028   -3.5583    1.0490 H   0  0  0  0  0  0
    2.5034   -2.3095    1.2881 H   0  0  0  0  0  0
    0.0142   -2.1429   -0.4711 H   0  0  0  0  0  0
    1.6912   -2.1978   -0.9825 H   0  0  0  0  0  0
    2.1528   -0.0277   -0.0056 H   0  0  0  0  0  0
   -0.4830    0.0782   -1.5036 H   0  0  0  0  0  0
    0.8151   -1.0379   -3.1072 H   0  0  0  0  0  0
    2.2984   -0.1766   -2.6779 H   0  0  0  0  0  0
    0.1766    0.6937   -4.5235 H   0  0  0  0  0  0
    1.7575    1.4139   -4.2339 H   0  0  0  0  0  0
   -0.9304    1.8624   -2.8603 H   0  0  0  0  0  0
    2.2066    3.4825   -1.2409 H   0  0  0  0  0  0
    2.8291    2.0518   -2.0643 H   0  0  0  0  0  0
    2.6156    2.0466   -0.3208 H   0  0  0  0  0  0
   -1.2274    2.1855   -0.4844 H   0  0  0  0  0  0
   -0.1088    3.5164   -0.2374 H   0  0  0  0  0  0
   -0.5038    2.1695    1.8024 H   0  0  0  0  0  0
    1.1930    2.2255    1.3700 H   0  0  0  0  0  0
   -0.7726   -0.0453    0.8831 H   0  0  0  0  0  0
    2.8791   -0.1681    2.0253 H   0  0  0  0  0  0
    2.4904   -0.4619    3.7146 H   0  0  0  0  0  0
    2.2105    1.1286    3.0177 H   0  0  0  0  0  0
   -2.9087   -3.2551    3.3494 H   0  0  0  0  0  0
    0.0276    3.9559   -2.9233 H   0  0  0  0  0  0
  1  2  1  0  0  0
  1  4  1  0  0  0
  1 20  1  0  0  0
  1 22  1  0  0  0
  2  3  1  0  0  0
  2 23  1  0  0  0
  2 24  1  0  0  0
  3 18  1  0  0  0
  3 25  1  0  0  0
  3 26  1  0  0  0
  4  5  1  0  0  0
  4 27  1  0  0  0
  4 28  1  0  0  0
  5  6  1  0  0  0
  5 18  1  0  0  0
  5 29  1  0  0  0
  6  7  1  0  0  0
  6 30  1  0  0  0
  6 31  1  0  0  0
  7  8  1  0  0  0
  7 32  1  0  0  0
  7 33  1  0  0  0
  8  9  1  0  0  0
  8 17  1  0  0  0
  8 34  1  0  0  0
  9 10  1  0  0  0
  9 13  1  0  0  0
  9 35  1  0  0  0
 10 11  1  0  0  0
 10 36  1  0  0  0
 10 37  1  0  0  0
 11 12  1  0  0  0
 11 38  1  0  0  0
 11 39  1  0  0  0
 12 13  1  0  0  0
 12 21  1  0  0  0
 12 40  1  0  0  0
 13 14  1  0  0  0
 13 15  1  0  0  0
 14 41  1  0  0  0
 14 42  1  0  0  0
 14 43  1  0  0  0
 15 16  1  0  0  0
 15 44  1  0  0  0
 15 45  1  0  0  0
 16 17  1  0  0  0
 16 46  1  0  0  0
 16 47  1  0  0  0
 17 18  1  0  0  0
 17 48  1  0  0  0
 18 19  1  0  0  0
 19 49  1  0  0  0
 19 50  1  0  0  0
 19 51  1  0  0  0
 20 52  1  0  0  0
 21 53  1  0  0  0
M  END
>  <Name>
tox-26

>  <substance>
5b-Androstane-3a,17b-diol

>  <CASRN>
1851-23-6

>  <from_NCI>
1

>  <RBA>
0.000000

>  <method>
MUC

>  <chemical_class>
Steroid, nonphenolic

>  <set>
0

$$$$
tox-27
  Cerius2 12190218263D 1   1.00000                          
 Structure written by MMmdl.
 49 52  0  0  0  0  0  0  0  0999 V2000
   -1.9775   -1.9307    3.3705 C   0  0  0  0  0  0
   -1.9633   -0.4314    3.5254 C   0  0  0  0  0  0
   -0.5271    0.0610    3.6107 C   0  0  0  0  0  0
   -1.1169   -2.4982    2.2674 C   0  0  0  0  0  0
    0.3200   -1.9439    2.3192 C   0  0  0  0  0  0
    1.1288   -2.4751    1.1229 C   0  0  0  0  0  0
    0.7343   -1.8319   -0.2048 C   0  0  0  0  0  0
    0.7786   -0.2998   -0.1448 C   0  0  0  0  0  0
    0.2521    0.3338   -1.4365 C   0  0  0  0  0  0
    0.8417   -0.0789   -2.7809 C   0  0  0  0  0  0
    0.2337    0.9484   -3.7477 C   0  0  0  0  0  0
   -0.0389    2.1464   -2.8518 C   0  0  0  0  0  0
    0.3908    1.8710   -1.4187 C   0  0  0  0  0  0
    1.8255    2.4136   -1.2750 C   0  0  0  0  0  0
   -0.5159    2.4062   -0.3145 C   0  0  0  0  0  0
   -0.1433    1.8000    1.0520 C   0  0  0  0  0  0
   -0.0710    0.2476    1.0503 C   0  0  0  0  0  0
    0.3749   -0.3815    2.4213 C   0  0  0  0  0  0
    1.8157    0.0579    2.7945 C   0  0  0  0  0  0
   -2.7326   -2.6451    4.0373 O   0  0  0  0  0  0
   -0.5200    3.2034   -3.2524 O   0  0  0  0  0  0
   -2.4977   -0.1665    4.4441 H   0  0  0  0  0  0
   -2.5013    0.0160    2.6845 H   0  0  0  0  0  0
   -0.0946   -0.3309    4.5428 H   0  0  0  0  0  0
   -0.5233    1.1510    3.7217 H   0  0  0  0  0  0
   -1.6176   -2.2768    1.3199 H   0  0  0  0  0  0
   -1.0924   -3.5889    2.3772 H   0  0  0  0  0  0
    0.7779   -2.3561    3.2305 H   0  0  0  0  0  0
    1.0103   -3.5629    1.0452 H   0  0  0  0  0  0
    2.1977   -2.3041    1.2981 H   0  0  0  0  0  0
   -0.2673   -2.1679   -0.4977 H   0  0  0  0  0  0
    1.4181   -2.1932   -0.9823 H   0  0  0  0  0  0
    1.8268   -0.0118   -0.0151 H   0  0  0  0  0  0
   -0.8206    0.0796   -1.4970 H   0  0  0  0  0  0
    0.5646   -1.0982   -3.0673 H   0  0  0  0  0  0
    1.9354   -0.0189   -2.7788 H   0  0  0  0  0  0
   -0.7157    0.5903   -4.1560 H   0  0  0  0  0  0
    0.9293    1.2079   -4.5485 H   0  0  0  0  0  0
    1.8191    3.5100   -1.3055 H   0  0  0  0  0  0
    2.4790    2.0875   -2.0912 H   0  0  0  0  0  0
    2.3010    2.1178   -0.3363 H   0  0  0  0  0  0
   -1.5649    2.1733   -0.5396 H   0  0  0  0  0  0
   -0.4566    3.5001   -0.2607 H   0  0  0  0  0  0
   -0.8928    2.1367    1.7766 H   0  0  0  0  0  0
    0.8122    2.2237    1.3762 H   0  0  0  0  0  0
   -1.1027   -0.0808    0.8619 H   0  0  0  0  0  0
    2.5474   -0.1630    2.0139 H   0  0  0  0  0  0
    2.1554   -0.4545    3.7026 H   0  0  0  0  0  0
    1.8678    1.1321    2.9996 H   0  0  0  0  0  0
  1  2  1  0  0  0
  1  4  1  0  0  0
  1 20  2  0  0  0
  2  3  1  0  0  0
  2 22  1  0  0  0
  2 23  1  0  0  0
  3 18  1  0  0  0
  3 24  1  0  0  0
  3 25  1  0  0  0
  4  5  1  0  0  0
  4 26  1  0  0  0
  4 27  1  0  0  0
  5  6  1  0  0  0
  5 18  1  0  0  0
  5 28  1  0  0  0
  6  7  1  0  0  0
  6 29  1  0  0  0
  6 30  1  0  0  0
  7  8  1  0  0  0
  7 31  1  0  0  0
  7 32  1  0  0  0
  8  9  1  0  0  0
  8 17  1  0  0  0
  8 33  1  0  0  0
  9 10  1  0  0  0
  9 13  1  0  0  0
  9 34  1  0  0  0
 10 11  1  0  0  0
 10 35  1  0  0  0
 10 36  1  0  0  0
 11 12  1  0  0  0
 11 37  1  0  0  0
 11 38  1  0  0  0
 12 13  1  0  0  0
 12 21  2  0  0  0
 13 14  1  0  0  0
 13 15  1  0  0  0
 14 39  1  0  0  0
 14 40  1  0  0  0
 14 41  1  0  0  0
 15 16  1  0  0  0
 15 42  1  0  0  0
 15 43  1  0  0  0
 16 17  1  0  0  0
 16 44  1  0  0  0
 16 45  1  0  0  0
 17 18  1  0  0  0
 17 46  1  0  0  0
 18 19  1  0  0  0
 19 47  1  0  0  0
 19 48  1  0  0  0
 19 49  1  0  0  0
M  END
>  <Name>
tox-27

>  <substance>
5b-Androstanedione

>  <CASRN>
5982-99-0

>  <from_NCI>
0

>  <RBA>
0.000000

>  <method>
hERa,MUC

>  <chemical_class>
Steroid, nonphenolic

>  <set>
0

$$$$
tox-28
  Cerius2 12190218263D 1   1.00000                          
 Structure written by MMmdl.
 49 52  0  0  0  0  0  0  0  0999 V2000
   -3.7111   -0.5883   -2.5435 C   0  0  0  0  0  0
   -3.6268   -2.0871   -2.3709 C   0  0  0  0  0  0
   -2.9769   -2.5969   -1.1043 C   0  0  0  0  0  0
   -2.3841    0.0951   -2.2192 C   0  0  0  0  0  0
   -1.7731   -0.3241   -0.8513 C   0  0  0  0  0  0
   -1.6437   -1.8827   -0.8623 C   0  0  0  0  0  0
   -0.9550   -2.4242    0.3961 C   0  0  0  0  0  0
    0.4332   -1.8156    0.5743 C   0  0  0  0  0  0
   -0.3233    0.2715   -0.6924 C   0  0  0  0  0  0
    0.3999   -0.2819    0.5804 C   0  0  0  0  0  0
    1.1646    2.3897   -0.5643 C   0  0  0  0  0  0
   -0.2504    1.8210   -0.7814 C   0  0  0  0  0  0
    1.7793    1.8544    0.7254 C   0  0  0  0  0  0
    1.8103    0.3144    0.6270 C   0  0  0  0  0  0
   -4.1650   -2.8579   -3.1731 O   0  0  0  0  0  0
   -2.7026    0.1753    0.2826 C   0  0  0  0  0  0
    1.0700    2.4328    1.9647 C   0  0  0  0  0  0
    2.7790   -0.1108    1.7253 C   0  0  0  0  0  0
    3.9385    0.8828    1.5584 C   0  0  0  0  0  0
    3.2688    2.0914    0.9239 C   0  0  0  0  0  0
    3.8615    3.1288    0.6379 O   0  0  0  0  0  0
   -4.5177   -0.2156   -1.9043 H   0  0  0  0  0  0
   -3.9853   -0.3701   -3.5816 H   0  0  0  0  0  0
   -2.8030   -3.6732   -1.2209 H   0  0  0  0  0  0
   -3.6765   -2.4651   -0.2733 H   0  0  0  0  0  0
   -2.5443    1.1788   -2.2558 H   0  0  0  0  0  0
   -1.6688   -0.1421   -3.0183 H   0  0  0  0  0  0
   -0.9961   -2.1455   -1.7138 H   0  0  0  0  0  0
   -0.8532   -3.5141    0.3237 H   0  0  0  0  0  0
   -1.5647   -2.2292    1.2859 H   0  0  0  0  0  0
    1.0864   -2.1700   -0.2334 H   0  0  0  0  0  0
    0.8626   -2.1866    1.5122 H   0  0  0  0  0  0
    0.2554   -0.0924   -1.5568 H   0  0  0  0  0  0
   -0.1441    0.0272    1.4789 H   0  0  0  0  0  0
    1.1227    3.4856   -0.5477 H   0  0  0  0  0  0
    1.7962    2.1265   -1.4230 H   0  0  0  0  0  0
   -0.9265    2.2749   -0.0504 H   0  0  0  0  0  0
   -0.5931    2.1538   -1.7673 H   0  0  0  0  0  0
    2.3015    0.0343   -0.3213 H   0  0  0  0  0  0
   -2.3010   -0.0315    1.2776 H   0  0  0  0  0  0
   -3.6924   -0.2883    0.2443 H   0  0  0  0  0  0
   -2.8670    1.2557    0.2141 H   0  0  0  0  0  0
    1.5352    2.1082    2.9015 H   0  0  0  0  0  0
    0.0116    2.1640    2.0141 H   0  0  0  0  0  0
    1.1280    3.5281    1.9558 H   0  0  0  0  0  0
    3.1263   -1.1417    1.6049 H   0  0  0  0  0  0
    2.3267   -0.0254    2.7192 H   0  0  0  0  0  0
    4.6927    0.4947    0.8679 H   0  0  0  0  0  0
    4.3870    1.1427    2.5196 H   0  0  0  0  0  0
  1  2  1  0  0  0
  1  4  1  0  0  0
  1 22  1  0  0  0
  1 23  1  0  0  0
  2  3  1  0  0  0
  2 15  2  0  0  0
  3  6  1  0  0  0
  3 24  1  0  0  0
  3 25  1  0  0  0
  4  5  1  0  0  0
  4 26  1  0  0  0
  4 27  1  0  0  0
  5  6  1  0  0  0
  5  9  1  0  0  0
  5 16  1  0  0  0
  6  7  1  0  0  0
  6 28  1  0  0  0
  7  8  1  0  0  0
  7 29  1  0  0  0
  7 30  1  0  0  0
  8 10  1  0  0  0
  8 31  1  0  0  0
  8 32  1  0  0  0
  9 10  1  0  0  0
  9 12  1  0  0  0
  9 33  1  0  0  0
 10 14  1  0  0  0
 10 34  1  0  0  0
 11 12  1  0  0  0
 11 13  1  0  0  0
 11 35  1  0  0  0
 11 36  1  0  0  0
 12 37  1  0  0  0
 12 38  1  0  0  0
 13 14  1  0  0  0
 13 17  1  0  0  0
 13 20  1  0  0  0
 14 18  1  0  0  0
 14 39  1  0  0  0
 16 40  1  0  0  0
 16 41  1  0  0  0
 16 42  1  0  0  0
 17 43  1  0  0  0
 17 44  1  0  0  0
 17 45  1  0  0  0
 18 19  1  0  0  0
 18 46  1  0  0  0
 18 47  1  0  0  0
 19 20  1  0  0  0
 19 48  1  0  0  0
 19 49  1  0  0  0
 20 21  2  0  0  0
M  END
>  <Name>
tox-28

>  <substance>
5a-Androstane-3,17-dione

>  <CASRN>
846-46-8

>  <from_NCI>
1

>  <RBA>
0.000000

>  <method>
hERa

>  <chemical_class>
Steroid, nonphenolic

>  <set>
2

$$$$
tox-29
  Cerius2 12190218263D 1   1.00000                          
 Structure written by MMmdl.
 51 54  0  0  0  0  0  0  0  0999 V2000
   -6.8436   -4.7013   16.7777 C   0  0  0  0  0  0
   -5.4393   -4.1213   16.7497 C   0  0  0  0  0  0
   -4.6833   -4.4910   15.4696 C   0  0  0  0  0  0
   -7.6992   -4.2609   15.5854 C   0  0  0  0  0  0
   -6.9201   -4.0667   14.2446 C   0  0  0  0  0  0
   -5.6068   -4.9045   14.3094 C   0  0  0  0  0  0
   -4.8305   -4.9214   12.9865 C   0  0  0  0  0  0
   -5.6974   -5.4171   11.8345 C   0  0  0  0  0  0
   -7.7870   -4.5924   13.0398 C   0  0  0  0  0  0
   -6.9876   -4.6013   11.6958 C   0  0  0  0  0  0
   -9.9863   -4.3918   11.6913 C   0  0  0  0  0  0
   -9.1690   -3.8949   12.8970 C   0  0  0  0  0  0
   -9.1633   -4.3095   10.4098 C   0  0  0  0  0  0
   -7.8967   -5.1678   10.6026 C   0  0  0  0  0  0
   -7.3580   -5.3606    9.1891 C   0  0  0  0  0  0
   -8.6252   -5.6894    8.3861 C   0  0  0  0  0  0
   -9.7252   -5.0258    9.1972 C   0  0  0  0  0  0
   -8.9300   -2.8471    9.9869 C   0  0  0  0  0  0
  -10.9096   -5.0491    8.8913 O   0  0  0  0  0  0
   -6.7794   -5.7979   16.7971 H   0  0  0  0  0  0
   -3.9745   -5.3066   15.6655 H   0  0  0  0  0  0
   -8.4837   -5.0191   15.4684 H   0  0  0  0  0  0
   -3.9569   -5.5785   13.0791 H   0  0  0  0  0  0
   -4.4427   -3.9231   12.7529 H   0  0  0  0  0  0
   -5.9399   -6.4754   11.9952 H   0  0  0  0  0  0
   -5.1152   -5.3644   10.9074 H   0  0  0  0  0  0
   -8.0164   -5.6466   13.2650 H   0  0  0  0  0  0
   -6.7037   -3.5788   11.4251 H   0  0  0  0  0  0
  -10.9059   -3.8010   11.5999 H   0  0  0  0  0  0
  -10.3089   -5.4255   11.8720 H   0  0  0  0  0  0
   -9.0406   -2.8123   12.8063 H   0  0  0  0  0  0
   -9.7672   -4.0557   13.8009 H   0  0  0  0  0  0
   -8.2029   -6.1736   10.9391 H   0  0  0  0  0  0
   -6.6299   -6.1751    9.1222 H   0  0  0  0  0  0
   -6.8763   -4.4520    8.8124 H   0  0  0  0  0  0
   -8.8054   -6.7677    8.3617 H   0  0  0  0  0  0
   -8.5800   -5.2787    7.3753 H   0  0  0  0  0  0
   -8.4016   -2.7666    9.0308 H   0  0  0  0  0  0
   -8.3594   -2.2766   10.7244 H   0  0  0  0  0  0
   -9.8909   -2.3360    9.8511 H   0  0  0  0  0  0
   -7.3463   -4.4334   17.7154 H   0  0  0  0  0  0
   -4.0600   -3.6354   15.1780 H   0  0  0  0  0  0
   -8.2245   -3.3339   15.8488 H   0  0  0  0  0  0
   -6.6089   -2.5570   14.0664 C   0  0  0  0  0  0
   -5.9009   -5.9479   14.5038 H   0  0  0  0  0  0
   -6.0940   -2.3448   13.1259 H   0  0  0  0  0  0
   -7.5216   -1.9529   14.0812 H   0  0  0  0  0  0
   -5.9754   -2.1650   14.8658 H   0  0  0  0  0  0
   -4.7213   -4.6014   17.8820 O   0  0  0  0  0  0
   -5.4979   -3.0323   16.8531 H   0  0  0  0  0  0
   -3.8227   -4.2347   17.8283 H   0  0  0  0  0  0
  1  2  1  0  0  0
  1  4  1  0  0  0
  1 20  1  0  0  0
  1 41  1  0  0  0
  2  3  1  0  0  0
  2 49  1  0  0  0
  2 50  1  0  0  0
  3  6  1  0  0  0
  3 21  1  0  0  0
  3 42  1  0  0  0
  4  5  1  0  0  0
  4 22  1  0  0  0
  4 43  1  0  0  0
  5  6  1  0  0  0
  5  9  1  0  0  0
  5 44  1  0  0  0
  6  7  1  0  0  0
  6 45  1  0  0  0
  7  8  1  0  0  0
  7 23  1  0  0  0
  7 24  1  0  0  0
  8 10  1  0  0  0
  8 25  1  0  0  0
  8 26  1  0  0  0
  9 10  1  0  0  0
  9 12  1  0  0  0
  9 27  1  0  0  0
 10 14  1  0  0  0
 10 28  1  0  0  0
 11 12  1  0  0  0
 11 13  1  0  0  0
 11 29  1  0  0  0
 11 30  1  0  0  0
 12 31  1  0  0  0
 12 32  1  0  0  0
 13 14  1  0  0  0
 13 17  1  0  0  0
 13 18  1  0  0  0
 14 15  1  0  0  0
 14 33  1  0  0  0
 15 16  1  0  0  0
 15 34  1  0  0  0
 15 35  1  0  0  0
 16 17  1  0  0  0
 16 36  1  0  0  0
 16 37  1  0  0  0
 17 19  2  0  0  0
 18 38  1  0  0  0
 18 39  1  0  0  0
 18 40  1  0  0  0
 44 46  1  0  0  0
 44 47  1  0  0  0
 44 48  1  0  0  0
 49 51  1  0  0  0
M  END
>  <Name>
tox-29

>  <substance>
5a-Androstane-3a-ol-17-one

>  <CASRN>
53-41-8

>  <from_NCI>
1

>  <RBA>
0.000000

>  <method>
MUC

>  <chemical_class>
Steroid, nonphenolic

>  <set>
0

$$$$
tox-30
  Cerius2 12190218263D 1   1.00000                          
 Structure written by MMmdl.
 51 54  0  0  0  0  0  0  0  0999 V2000
   -5.4758   -4.9770   16.7621 C   0  0  0  0  0  0
   -6.6215   -3.9430   16.8109 C   0  0  0  0  0  0
   -7.5520   -4.1057   15.6054 C   0  0  0  0  0  0
   -4.8678   -5.0478   15.3853 C   0  0  0  0  0  0
   -5.4416   -4.5632   14.2627 C   0  0  0  0  0  0
   -4.7307   -4.6711   12.9326 C   0  0  0  0  0  0
   -5.6124   -5.3203   11.8710 C   0  0  0  0  0  0
   -6.9522   -4.5841   11.7255 C   0  0  0  0  0  0
   -7.8594   -5.2662   10.6937 C   0  0  0  0  0  0
   -7.3362   -5.4726    9.2751 C   0  0  0  0  0  0
   -8.6079   -5.6948    8.4267 C   0  0  0  0  0  0
   -9.8273   -5.4776    9.3759 C   0  0  0  0  0  0
   -9.2148   -4.5367   10.4826 C   0  0  0  0  0  0
   -9.0326   -3.0601   10.0130 C   0  0  0  0  0  0
   -9.9537   -4.5585   11.8365 C   0  0  0  0  0  0
   -9.1170   -3.9309   12.9669 C   0  0  0  0  0  0
   -7.6952   -4.5406   13.0983 C   0  0  0  0  0  0
   -6.8246   -3.8933   14.2428 C   0  0  0  0  0  0
   -6.6265   -2.3740   14.0229 C   0  0  0  0  0  0
   -4.5180   -4.5672   17.5749 O   0  0  0  0  0  0
  -10.8314   -4.9470    8.6983 O   0  0  0  0  0  0
   -5.9390   -5.9624   16.9208 H   0  0  0  0  0  0
   -6.2500   -2.9084   16.8406 H   0  0  0  0  0  0
   -7.2040   -4.0808   17.7327 H   0  0  0  0  0  0
   -8.3871   -3.4022   15.7102 H   0  0  0  0  0  0
   -7.9898   -5.1125   15.6464 H   0  0  0  0  0  0
   -3.9033   -5.5545   15.2982 H   0  0  0  0  0  0
   -3.8048   -5.2520   13.0229 H   0  0  0  0  0  0
   -4.4321   -3.6688   12.6029 H   0  0  0  0  0  0
   -5.7875   -6.3723   12.1312 H   0  0  0  0  0  0
   -5.0735   -5.3153   10.9164 H   0  0  0  0  0  0
   -6.7300   -3.5655   11.3907 H   0  0  0  0  0  0
   -8.0691   -6.2752   11.0871 H   0  0  0  0  0  0
   -6.6636   -6.3341    9.2101 H   0  0  0  0  0  0
   -6.7870   -4.5949    8.9164 H   0  0  0  0  0  0
   -8.6234   -6.7122    8.0156 H   0  0  0  0  0  0
   -8.5919   -5.0089    7.5686 H   0  0  0  0  0  0
   -9.9917   -6.4521    9.8643 H   0  0  0  0  0  0
  -10.0062   -2.5664    9.9124 H   0  0  0  0  0  0
   -8.5312   -2.9904    9.0426 H   0  0  0  0  0  0
   -8.4499   -2.4577   10.7143 H   0  0  0  0  0  0
  -10.1936   -5.5929   12.1148 H   0  0  0  0  0  0
  -10.9118   -4.0308   11.7564 H   0  0  0  0  0  0
   -9.6694   -4.0699   13.9030 H   0  0  0  0  0  0
   -9.0548   -2.8501   12.8070 H   0  0  0  0  0  0
   -7.8532   -5.5925   13.3882 H   0  0  0  0  0  0
   -6.2416   -2.1426   13.0251 H   0  0  0  0  0  0
   -5.9124   -1.9550   14.7414 H   0  0  0  0  0  0
   -7.5643   -1.8224   14.1470 H   0  0  0  0  0  0
   -3.8769   -5.1251   17.5614 H   0  0  0  0  0  0
  -11.0748   -5.4837    8.0858 H   0  0  0  0  0  0
  1  2  1  0  0  0
  1  4  1  0  0  0
  1 20  1  0  0  0
  1 22  1  0  0  0
  2  3  1  0  0  0
  2 23  1  0  0  0
  2 24  1  0  0  0
  3 18  1  0  0  0
  3 25  1  0  0  0
  3 26  1  0  0  0
  4  5  2  0  0  0
  4 27  1  0  0  0
  5  6  1  0  0  0
  5 18  1  0  0  0
  6  7  1  0  0  0
  6 28  1  0  0  0
  6 29  1  0  0  0
  7  8  1  0  0  0
  7 30  1  0  0  0
  7 31  1  0  0  0
  8  9  1  0  0  0
  8 17  1  0  0  0
  8 32  1  0  0  0
  9 10  1  0  0  0
  9 13  1  0  0  0
  9 33  1  0  0  0
 10 11  1  0  0  0
 10 34  1  0  0  0
 10 35  1  0  0  0
 11 12  1  0  0  0
 11 36  1  0  0  0
 11 37  1  0  0  0
 12 13  1  0  0  0
 12 21  1  0  0  0
 12 38  1  0  0  0
 13 14  1  0  0  0
 13 15  1  0  0  0
 14 39  1  0  0  0
 14 40  1  0  0  0
 14 41  1  0  0  0
 15 16  1  0  0  0
 15 42  1  0  0  0
 15 43  1  0  0  0
 16 17  1  0  0  0
 16 44  1  0  0  0
 16 45  1  0  0  0
 17 18  1  0  0  0
 17 46  1  0  0  0
 18 19  1  0  0  0
 19 47  1  0  0  0
 19 48  1  0  0  0
 19 49  1  0  0  0
 20 50  1  0  0  0
 21 51  1  0  0  0
M  END
>  <Name>
tox-30

>  <substance>
4-Androstenediol

>  <CASRN>
1156-92-9

>  <from_NCI>
1

>  <RBA>
0.500000

>  <method>
hERa

>  <chemical_class>
Steroid, nonphenolic

>  <set>
1

$$$$
tox-31
  Cerius2 12190218263D 1   1.00000                          
 Structure written by MMmdl.
 51 54  0  0  0  0  0  0  0  0999 V2000
   -6.9678   -4.7729   11.8016 C   0  0  0  0  0  0
   -7.7534   -4.7428   13.1449 C   0  0  0  0  0  0
   -7.9025   -5.2131   10.6679 C   0  0  0  0  0  0
   -5.7650   -5.7231   11.9143 C   0  0  0  0  0  0
   -6.8399   -4.2536   14.3419 C   0  0  0  0  0  0
   -9.1071   -3.9900   13.0306 C   0  0  0  0  0  0
   -9.1509   -4.3088   10.4963 C   0  0  0  0  0  0
   -7.3352   -5.3224    9.2554 C   0  0  0  0  0  0
   -5.0162   -5.5932   13.2038 C   0  0  0  0  0  0
   -5.4646   -4.9367   14.2901 C   0  0  0  0  0  0
   -7.5466   -4.6263   15.6780 C   0  0  0  0  0  0
   -6.6185   -2.7223   14.2873 C   0  0  0  0  0  0
   -9.9507   -4.4036   11.8118 C   0  0  0  0  0  0
   -9.8122   -5.0367    9.2642 C   0  0  0  0  0  0
   -8.7751   -2.8216   10.2141 C   0  0  0  0  0  0
   -8.5802   -5.2926    8.3410 C   0  0  0  0  0  0
   -4.6023   -4.8479   15.5392 C   0  0  0  0  0  0
   -6.6697   -4.4729   16.9296 C   0  0  0  0  0  0
  -10.7116   -4.3139    8.6182 O   0  0  0  0  0  0
   -5.3693   -5.2998   16.8099 C   0  0  0  0  0  0
   -4.6233   -5.0469   17.8763 O   0  0  0  0  0  0
   -6.5781   -3.7728   11.5817 H   0  0  0  0  0  0
   -8.0223   -5.7906   13.3575 H   0  0  0  0  0  0
   -8.2503   -6.2260   10.9330 H   0  0  0  0  0  0
   -5.0744   -5.5259   11.0856 H   0  0  0  0  0  0
   -6.0868   -6.7674   11.8170 H   0  0  0  0  0  0
   -8.9452   -2.9094   12.9858 H   0  0  0  0  0  0
   -9.7060   -4.1709   13.9305 H   0  0  0  0  0  0
   -6.7639   -6.2457    9.1156 H   0  0  0  0  0  0
   -6.6712   -4.4826    9.0220 H   0  0  0  0  0  0
   -4.0401   -6.0770   13.2269 H   0  0  0  0  0  0
   -7.8892   -5.6692   15.6349 H   0  0  0  0  0  0
   -8.4453   -4.0133   15.8169 H   0  0  0  0  0  0
   -5.9115   -2.3770   15.0489 H   0  0  0  0  0  0
   -7.5479   -2.1723   14.4657 H   0  0  0  0  0  0
   -6.2190   -2.4032   13.3193 H   0  0  0  0  0  0
  -10.8471   -3.7741   11.7585 H   0  0  0  0  0  0
  -10.3038   -5.4318   11.9639 H   0  0  0  0  0  0
  -10.1140   -6.0329    9.6273 H   0  0  0  0  0  0
   -9.6776   -2.2023   10.1550 H   0  0  0  0  0  0
   -8.2354   -2.7009    9.2695 H   0  0  0  0  0  0
   -8.1465   -2.3848   10.9940 H   0  0  0  0  0  0
   -8.6931   -6.2482    7.8136 H   0  0  0  0  0  0
   -8.4416   -4.5222    7.5701 H   0  0  0  0  0  0
   -4.2443   -3.8132   15.6387 H   0  0  0  0  0  0
   -3.6993   -5.4649   15.4230 H   0  0  0  0  0  0
   -7.2514   -4.8063   17.8009 H   0  0  0  0  0  0
   -6.4562   -3.4072   17.0934 H   0  0  0  0  0  0
   -5.6868   -6.3368   16.6186 H   0  0  0  0  0  0
  -11.0253   -4.7653    7.9699 H   0  0  0  0  0  0
   -3.9273   -5.5344   17.8572 H   0  0  0  0  0  0
  1  2  1  0  0  0
  1  3  1  0  0  0
  1  4  1  0  0  0
  1 22  1  0  0  0
  2  5  1  0  0  0
  2  6  1  0  0  0
  2 23  1  0  0  0
  3  7  1  0  0  0
  3  8  1  0  0  0
  3 24  1  0  0  0
  4  9  1  0  0  0
  4 25  1  0  0  0
  4 26  1  0  0  0
  5 10  1  0  0  0
  5 11  1  0  0  0
  5 12  1  0  0  0
  6 13  1  0  0  0
  6 27  1  0  0  0
  6 28  1  0  0  0
  7 13  1  0  0  0
  7 14  1  0  0  0
  7 15  1  0  0  0
  8 16  1  0  0  0
  8 29  1  0  0  0
  8 30  1  0  0  0
  9 10  2  0  0  0
  9 31  1  0  0  0
 10 17  1  0  0  0
 11 18  1  0  0  0
 11 32  1  0  0  0
 11 33  1  0  0  0
 12 34  1  0  0  0
 12 35  1  0  0  0
 12 36  1  0  0  0
 13 37  1  0  0  0
 13 38  1  0  0  0
 14 16  1  0  0  0
 14 19  1  0  0  0
 14 39  1  0  0  0
 15 40  1  0  0  0
 15 41  1  0  0  0
 15 42  1  0  0  0
 16 43  1  0  0  0
 16 44  1  0  0  0
 17 20  1  0  0  0
 17 45  1  0  0  0
 17 46  1  0  0  0
 18 20  1  0  0  0
 18 47  1  0  0  0
 18 48  1  0  0  0
 19 50  1  0  0  0
 20 21  1  0  0  0
 20 49  1  0  0  0
 21 51  1  0  0  0
M  END
>  <Name>
tox-31

>  <substance>
5-Androstenediol

>  <CASRN>
521-17-5

>  <from_NCI>
1

>  <RBA>
3.000000

>  <method>
hERa,hERa,hERa,RBC

>  <chemical_class>
Steroid, nonphenolic

>  <set>
0

$$$$
tox-32
  Cerius2 12190218263D 1   1.00000                          
 Structure written by MMmdl.
 47 50  0  0  0  0  0  0  0  0999 V2000
   -5.3987   -4.7582   16.6976 C   0  0  0  0  0  0
   -6.6524   -3.9317   16.8017 C   0  0  0  0  0  0
   -7.5355   -4.1481   15.5813 C   0  0  0  0  0  0
   -4.8112   -4.9650   15.3544 C   0  0  0  0  0  0
   -5.4232   -4.5321   14.2377 C   0  0  0  0  0  0
   -4.7170   -4.6519   12.9077 C   0  0  0  0  0  0
   -5.5995   -5.2927   11.8438 C   0  0  0  0  0  0
   -6.9294   -4.5430   11.7006 C   0  0  0  0  0  0
   -7.8443   -5.2040   10.6657 C   0  0  0  0  0  0
   -7.3434   -5.4415    9.2448 C   0  0  0  0  0  0
   -8.6196   -5.8624    8.4995 C   0  0  0  0  0  0
   -9.7222   -5.2023    9.3098 C   0  0  0  0  0  0
   -9.1546   -4.4130   10.4754 C   0  0  0  0  0  0
   -9.0000   -2.9599    9.9895 C   0  0  0  0  0  0
   -9.9333   -4.4815   11.7845 C   0  0  0  0  0  0
   -9.1060   -3.9060   12.9482 C   0  0  0  0  0  0
   -7.6794   -4.5144   13.0716 C   0  0  0  0  0  0
   -6.8134   -3.8820   14.2275 C   0  0  0  0  0  0
   -6.6309   -2.3582   14.0471 C   0  0  0  0  0  0
   -4.8163   -5.1980   17.6859 O   0  0  0  0  0  0
  -10.9121   -5.2801    9.0354 O   0  0  0  0  0  0
   -6.3716   -2.8803   16.9188 H   0  0  0  0  0  0
   -7.1988   -4.2418   17.6992 H   0  0  0  0  0  0
   -8.4222   -3.5102   15.6782 H   0  0  0  0  0  0
   -7.8956   -5.1863   15.6043 H   0  0  0  0  0  0
   -3.8327   -5.4326   15.3461 H   0  0  0  0  0  0
   -3.7950   -5.2389   12.9993 H   0  0  0  0  0  0
   -4.4118   -3.6512   12.5773 H   0  0  0  0  0  0
   -5.7829   -6.3443   12.0988 H   0  0  0  0  0  0
   -5.0585   -5.2879   10.8904 H   0  0  0  0  0  0
   -6.7010   -3.5207   11.3803 H   0  0  0  0  0  0
   -8.0930   -6.2054   11.0590 H   0  0  0  0  0  0
   -6.5833   -6.2273    9.1923 H   0  0  0  0  0  0
   -6.9148   -4.5321    8.8100 H   0  0  0  0  0  0
   -8.7572   -6.9470    8.5350 H   0  0  0  0  0  0
   -8.6206   -5.5017    7.4685 H   0  0  0  0  0  0
   -9.9864   -2.4970    9.8616 H   0  0  0  0  0  0
   -8.5021   -2.8960    9.0161 H   0  0  0  0  0  0
   -8.4362   -2.3356   10.6877 H   0  0  0  0  0  0
  -10.2048   -5.5206   12.0112 H   0  0  0  0  0  0
  -10.8812   -3.9356   11.7007 H   0  0  0  0  0  0
   -9.6681   -4.0813   13.8722 H   0  0  0  0  0  0
   -9.0430   -2.8199   12.8270 H   0  0  0  0  0  0
   -7.8374   -5.5707   13.3459 H   0  0  0  0  0  0
   -6.2452   -2.1012   13.0557 H   0  0  0  0  0  0
   -5.9239   -1.9483   14.7780 H   0  0  0  0  0  0
   -7.5744   -1.8196   14.1823 H   0  0  0  0  0  0
  1  2  1  0  0  0
  1  4  1  0  0  0
  1 20  2  0  0  0
  2  3  1  0  0  0
  2 22  1  0  0  0
  2 23  1  0  0  0
  3 18  1  0  0  0
  3 24  1  0  0  0
  3 25  1  0  0  0
  4  5  2  0  0  0
  4 26  1  0  0  0
  5  6  1  0  0  0
  5 18  1  0  0  0
  6  7  1  0  0  0
  6 27  1  0  0  0
  6 28  1  0  0  0
  7  8  1  0  0  0
  7 29  1  0  0  0
  7 30  1  0  0  0
  8  9  1  0  0  0
  8 17  1  0  0  0
  8 31  1  0  0  0
  9 10  1  0  0  0
  9 13  1  0  0  0
  9 32  1  0  0  0
 10 11  1  0  0  0
 10 33  1  0  0  0
 10 34  1  0  0  0
 11 12  1  0  0  0
 11 35  1  0  0  0
 11 36  1  0  0  0
 12 13  1  0  0  0
 12 21  2  0  0  0
 13 14  1  0  0  0
 13 15  1  0  0  0
 14 37  1  0  0  0
 14 38  1  0  0  0
 14 39  1  0  0  0
 15 16  1  0  0  0
 15 40  1  0  0  0
 15 41  1  0  0  0
 16 17  1  0  0  0
 16 42  1  0  0  0
 16 43  1  0  0  0
 17 18  1  0  0  0
 17 44  1  0  0  0
 18 19  1  0  0  0
 19 45  1  0  0  0
 19 46  1  0  0  0
 19 47  1  0  0  0
M  END
>  <Name>
tox-32

>  <substance>
4-Androstenedione

>  <CASRN>
63-05-8

>  <from_NCI>
1

>  <RBA>
0.002000

>  <method>
hERa,MCF-7 cytosol,MUC

>  <chemical_class>
Steroid, nonphenolic

>  <set>
1

$$$$
tox-33
  Cerius2 12190218263D 1   1.00000                          
 Structure written by MMmdl.
 24 26  0  0  0  0  0  0  0  0999 V2000
   -1.2252    0.7060    0.0012 C   0  0  0  0  0  0
   -1.2252   -0.7061   -0.0012 C   0  0  0  0  0  0
   -0.0002    1.3939    0.0023 C   0  0  0  0  0  0
   -2.4505    1.3928    0.0023 C   0  0  0  0  0  0
   -0.0002   -1.3939   -0.0023 C   0  0  0  0  0  0
   -2.4506   -1.3928   -0.0023 C   0  0  0  0  0  0
    1.2248    0.7060    0.0012 C   0  0  0  0  0  0
   -3.6599    0.6957    0.0012 C   0  0  0  0  0  0
    1.2248   -0.7061   -0.0012 C   0  0  0  0  0  0
   -3.6599   -0.6957   -0.0012 C   0  0  0  0  0  0
    2.4502    1.3928    0.0023 C   0  0  0  0  0  0
    2.4501   -1.3929   -0.0024 C   0  0  0  0  0  0
    3.6595    0.6957    0.0012 C   0  0  0  0  0  0
    3.6595   -0.6958   -0.0012 C   0  0  0  0  0  0
   -0.0002    2.4844    0.0042 H   0  0  0  0  0  0
   -2.4727    2.4823    0.0042 H   0  0  0  0  0  0
   -0.0002   -2.4844   -0.0042 H   0  0  0  0  0  0
   -2.4727   -2.4823   -0.0042 H   0  0  0  0  0  0
   -4.6021    1.2412    0.0021 H   0  0  0  0  0  0
   -4.6021   -1.2412   -0.0021 H   0  0  0  0  0  0
    2.4723    2.4823    0.0042 H   0  0  0  0  0  0
    2.4723   -2.4823   -0.0042 H   0  0  0  0  0  0
    4.6017    1.2412    0.0021 H   0  0  0  0  0  0
    4.6017   -1.2412   -0.0021 H   0  0  0  0  0  0
  1  2  2  0  0  0
  1  3  1  0  0  0
  1  4  1  0  0  0
  2  5  1  0  0  0
  2  6  1  0  0  0
  3  7  2  0  0  0
  3 15  1  0  0  0
  4  8  2  0  0  0
  4 16  1  0  0  0
  5  9  2  0  0  0
  5 17  1  0  0  0
  6 10  2  0  0  0
  6 18  1  0  0  0
  7  9  1  0  0  0
  7 11  1  0  0  0
  8 10  1  0  0  0
  8 19  1  0  0  0
  9 12  1  0  0  0
 10 20  1  0  0  0
 11 13  2  0  0  0
 11 21  1  0  0  0
 12 14  2  0  0  0
 12 22  1  0  0  0
 13 14  1  0  0  0
 13 23  1  0  0  0
 14 24  1  0  0  0
M  END
>  <Name>
tox-33

>  <substance>
Anthracene

>  <CASRN>
120-12-7

>  <from_NCI>
1

>  <RBA>
0.000000

>  <method>
MCF-7 cells

>  <chemical_class>
Polycyclic aromatic hydrocarbon

>  <set>
1

$$$$
tox-34
  Cerius2 12190218263D 1   1.00000                          
 Structure written by MMmdl.
 30 32  0  0  0  0  0  0  0  0999 V2000
   -1.7763   -0.6563    1.7884 C   0  0  0  0  0  0
   -1.6786    0.5436    1.0670 C   0  0  0  0  0  0
   -0.4721   -1.3383    2.1044 C   0  0  0  0  0  0
   -3.0536   -1.1691    2.1805 C   0  0  0  0  0  0
   -0.4946    1.1060    0.6526 O   0  0  0  0  0  0
   -2.8245    1.2683    0.7112 C   0  0  0  0  0  0
    0.7626   -0.6766    1.6410 C   0  0  0  0  0  0
   -0.3563   -2.3990    2.7150 O   0  0  0  0  0  0
   -4.1618   -0.3646    1.7752 C   0  0  0  0  0  0
   -3.2698   -2.2447    2.8374 O   0  0  0  0  0  0
    0.6916    0.4765    0.9675 C   0  0  0  0  0  0
   -4.1150    0.8496    1.0476 C   0  0  0  0  0  0
    1.8979    1.1712    0.4732 C   0  0  0  0  0  0
   -5.1581    1.5029    0.7278 O   0  0  0  0  0  0
    3.0630    1.2692    1.2365 C   0  0  0  0  0  0
    1.8995    1.7842   -0.7814 C   0  0  0  0  0  0
    4.1936    1.9487    0.7447 C   0  0  0  0  0  0
    3.0402    2.4581   -1.2560 C   0  0  0  0  0  0
    4.2328    2.5683   -0.5179 C   0  0  0  0  0  0
    5.2591    3.1787   -0.9542 O   0  0  0  0  0  0
   -2.6880    2.1957    0.1489 H   0  0  0  0  0  0
    1.6948   -1.1790    1.8674 H   0  0  0  0  0  0
   -5.1622   -0.7262    2.0584 H   0  0  0  0  0  0
    3.1184    0.8319    2.2325 H   0  0  0  0  0  0
    1.0175    1.7440   -1.4198 H   0  0  0  0  0  0
    5.0741    1.9882    1.3929 H   0  0  0  0  0  0
    2.9759    2.9116   -2.2496 H   0  0  0  0  0  0
   -4.1062   -2.3432    2.9524 H   0  0  0  0  0  0
   -5.8466    1.0965    1.0165 H   0  0  0  0  0  0
    5.0973    3.4866   -1.7298 H   0  0  0  0  0  0
  1  2  2  0  0  0
  1  3  1  0  0  0
  1  4  1  0  0  0
  2  5  1  0  0  0
  2  6  1  0  0  0
  3  7  1  0  0  0
  3  8  2  0  0  0
  4  9  2  0  0  0
  4 10  1  0  0  0
  5 11  1  0  0  0
  6 12  2  0  0  0
  6 21  1  0  0  0
  7 11  2  0  0  0
  7 22  1  0  0  0
  9 12  1  0  0  0
  9 23  1  0  0  0
 10 28  1  0  0  0
 11 13  1  0  0  0
 12 14  1  0  0  0
 13 15  2  0  0  0
 13 16  1  0  0  0
 14 29  1  0  0  0
 15 17  1  0  0  0
 15 24  1  0  0  0
 16 18  2  0  0  0
 16 25  1  0  0  0
 17 19  2  0  0  0
 17 26  1  0  0  0
 18 19  1  0  0  0
 18 27  1  0  0  0
 19 20  1  0  0  0
 20 30  1  0  0  0
M  END
>  <Name>
tox-34

>  <substance>
Apigenin

>  <CASRN>
520-36-5

>  <from_NCI>
1

>  <RBA>
0.200000

>  <method>
hERa,RUC

>  <chemical_class>
Flavone

>  <set>
0

$$$$
tox-37
  Cerius2 12190218263D 1   1.00000                          
 Structure written by MMmdl.
 28 28  0  0  0  0  0  0  0  0999 V2000
   -0.9504   -0.8010    0.4538 C   0  0  0  0  0  0
    0.2115   -1.4298    0.5974 N   0  0  0  0  0  0
   -1.0640    0.5053    0.3117 N   0  0  0  0  0  0
   -2.0652   -1.5912    0.4617 N   0  0  0  0  0  0
    1.3122   -0.6850    0.5942 C   0  0  0  0  0  0
    0.0976    1.1407    0.3232 C   0  0  0  0  0  0
   -3.4040   -1.0974    0.2028 C   0  0  0  0  0  0
    1.3107    0.6270    0.4575 N   0  0  0  0  0  0
    2.4939   -1.3542    0.7432 N   0  0  0  0  0  0
    0.0213    2.8382    0.1393 Cl  0  0  0  0  0  0
   -4.4100   -2.0325    0.8720 C   0  0  0  0  0  0
   -3.6549   -1.0347   -1.3014 C   0  0  0  0  0  0
    3.7705   -0.6783    0.7608 C   0  0  0  0  0  0
    4.8900   -1.6895    0.9408 C   0  0  0  0  0  0
   -1.8943   -2.5899    0.5081 H   0  0  0  0  0  0
   -3.5418   -0.1002    0.6387 H   0  0  0  0  0  0
    2.4354   -2.3611    0.8444 H   0  0  0  0  0  0
   -5.4349   -1.6818    0.7120 H   0  0  0  0  0  0
   -4.2340   -2.0822    1.9523 H   0  0  0  0  0  0
   -4.3335   -3.0522    0.4778 H   0  0  0  0  0  0
   -4.6721   -0.6883   -1.5125 H   0  0  0  0  0  0
   -3.5261   -2.0177   -1.7685 H   0  0  0  0  0  0
   -2.9583   -0.3448   -1.7897 H   0  0  0  0  0  0
    3.8059    0.0453    1.5834 H   0  0  0  0  0  0
    3.9260   -0.1353   -0.1787 H   0  0  0  0  0  0
    5.8611   -1.1852    0.9561 H   0  0  0  0  0  0
    4.8955   -2.4191    0.1239 H   0  0  0  0  0  0
    4.7747   -2.2400    1.8806 H   0  0  0  0  0  0
  1  2  2  0  0  0
  1  3  1  0  0  0
  1  4  1  0  0  0
  2  5  1  0  0  0
  3  6  2  0  0  0
  4  7  1  0  0  0
  4 15  1  0  0  0
  5  8  2  0  0  0
  5  9  1  0  0  0
  6  8  1  0  0  0
  6 10  1  0  0  0
  7 11  1  0  0  0
  7 12  1  0  0  0
  7 16  1  0  0  0
  9 13  1  0  0  0
  9 17  1  0  0  0
 11 18  1  0  0  0
 11 19  1  0  0  0
 11 20  1  0  0  0
 12 21  1  0  0  0
 12 22  1  0  0  0
 12 23  1  0  0  0
 13 14  1  0  0  0
 13 24  1  0  0  0
 13 25  1  0  0  0
 14 26  1  0  0  0
 14 27  1  0  0  0
 14 28  1  0  0  0
M  END
>  <Name>
tox-37

>  <substance>
Atrazine

>  <CASRN>
1912-24-9

>  <from_NCI>
1

>  <RBA>
0.000060

>  <method>
GST-hERadef,GST-mERadef,hERa-FP,RUC,RUC

>  <chemical_class>
Triazine; Aromatic amine

>  <set>
0

$$$$
tox-38
  Cerius2 12190218263D 1   1.00000                          
 Structure written by MMmdl.
 36 38  0  0  0  0  0  0  0  0999 V2000
    0.0235    0.6688    0.0141 C   0  0  0  0  0  0
    1.2989    1.4318   -0.0786 C   0  0  0  0  0  0
   -1.2580    1.4120   -0.1374 C   0  0  0  0  0  0
    0.0289   -0.6812    0.2329 C   0  0  0  0  0  0
    1.9444    1.5983   -1.3032 C   0  0  0  0  0  0
    1.8734    2.0030    1.0561 C   0  0  0  0  0  0
   -1.8370    1.5882   -1.3934 C   0  0  0  0  0  0
   -1.9047    1.9547    0.9723 C   0  0  0  0  0  0
    1.2837   -1.4353    0.3883 C   0  0  0  0  0  0
   -1.2197   -1.4557    0.3252 C   0  0  0  0  0  0
    3.1485    2.3206   -1.3786 C   0  0  0  0  0  0
    3.0781    2.7214    0.9568 C   0  0  0  0  0  0
   -3.0473    2.2920   -1.5247 C   0  0  0  0  0  0
   -3.1143    2.6547    0.8171 C   0  0  0  0  0  0
    1.3003   -2.7588    0.6023 C   0  0  0  0  0  0
   -1.2255   -2.7794    0.5386 C   0  0  0  0  0  0
    3.7662    2.9109   -0.2581 C   0  0  0  0  0  0
   -3.7367    2.8531   -0.4314 C   0  0  0  0  0  0
    0.0405   -3.5288    0.6928 C   0  0  0  0  0  0
    4.8556    3.5621   -0.3370 O   0  0  0  0  0  0
   -4.8312    3.4876   -0.5610 O   0  0  0  0  0  0
    0.0455   -4.7421    0.8882 O   0  0  0  0  0  0
    1.5262    1.1692   -2.2122 H   0  0  0  0  0  0
    1.3985    1.8971    2.0300 H   0  0  0  0  0  0
   -1.3615    1.1814   -2.2842 H   0  0  0  0  0  0
   -1.4830    1.8403    1.9694 H   0  0  0  0  0  0
    2.2377   -0.9193    0.3312 H   0  0  0  0  0  0
   -2.1779   -0.9554    0.2187 H   0  0  0  0  0  0
    3.6127    2.4179   -2.3643 H   0  0  0  0  0  0
    3.4847    3.1463    1.8792 H   0  0  0  0  0  0
   -3.4574    2.3982   -2.5332 H   0  0  0  0  0  0
   -3.5791    3.0572    1.7217 H   0  0  0  0  0  0
    2.2252   -3.3105    0.7162 H   0  0  0  0  0  0
   -2.1458   -3.3462    0.6057 H   0  0  0  0  0  0
    5.0746    3.8425    0.4349 H   0  0  0  0  0  0
   -5.0978    3.7513    0.2018 H   0  0  0  0  0  0
  1  2  1  0  0  0
  1  3  1  0  0  0
  1  4  2  0  0  0
  2  5  2  0  0  0
  2  6  1  0  0  0
  3  7  2  0  0  0
  3  8  1  0  0  0
  4  9  1  0  0  0
  4 10  1  0  0  0
  5 11  1  0  0  0
  5 23  1  0  0  0
  6 12  2  0  0  0
  6 24  1  0  0  0
  7 13  1  0  0  0
  7 25  1  0  0  0
  8 14  2  0  0  0
  8 26  1  0  0  0
  9 15  2  0  0  0
  9 27  1  0  0  0
 10 16  2  0  0  0
 10 28  1  0  0  0
 11 17  2  0  0  0
 11 29  1  0  0  0
 12 17  1  0  0  0
 12 30  1  0  0  0
 13 18  2  0  0  0
 13 31  1  0  0  0
 14 18  1  0  0  0
 14 32  1  0  0  0
 15 19  1  0  0  0
 15 33  1  0  0  0
 16 19  1  0  0  0
 16 34  1  0  0  0
 17 20  1  0  0  0
 18 21  1  0  0  0
 19 22  2  0  0  0
 20 35  1  0  0  0
 21 36  1  0  0  0
M  END
>  <Name>
tox-38

>  <substance>
Aurin

>  <CASRN>
603-45-2

>  <from_NCI>
1

>  <RBA>
0.030000

>  <method>
RUC

>  <chemical_class>
Diphenolalkane

>  <set>
1

$$$$
tox-39
  Cerius2 12190218263D 1   1.00000                          
 Structure written by MMmdl.
 30 32  0  0  0  0  0  0  0  0999 V2000
   -4.1880    0.9327   -1.1773 C   0  0  0  0  0  0
   -3.9660   -0.4743   -0.8618 C   0  0  0  0  0  0
   -2.6501   -0.8653   -0.5409 C   0  0  0  0  0  0
   -3.0540    1.8851   -1.1512 C   0  0  0  0  0  0
   -1.7469    1.3612   -0.8049 C   0  0  0  0  0  0
   -1.5691    0.0106   -0.5104 C   0  0  0  0  0  0
   -0.3718   -0.5730   -0.1750 O   0  0  0  0  0  0
    0.7636    0.2067   -0.1327 C   0  0  0  0  0  0
    0.7659    1.5201   -0.3780 C   0  0  0  0  0  0
   -0.4927    2.2064   -0.7314 C   0  0  0  0  0  0
   -0.4287    3.4168   -0.9392 O   0  0  0  0  0  0
   -3.2386    3.1302   -1.4292 O   0  0  0  0  0  0
   -5.3756    1.3406   -1.4784 O   0  0  0  0  0  0
   -4.8859   -1.3671   -0.8591 O   0  0  0  0  0  0
    1.9925   -0.5253    0.2364 C   0  0  0  0  0  0
    1.9508   -1.5118    1.2343 C   0  0  0  0  0  0
    3.1013   -2.2217    1.5896 C   0  0  0  0  0  0
    4.3090   -1.9597    0.9475 C   0  0  0  0  0  0
    4.3666   -0.9909   -0.0515 C   0  0  0  0  0  0
    3.2162   -0.2802   -0.4067 C   0  0  0  0  0  0
   -2.4525   -1.9146   -0.3001 H   0  0  0  0  0  0
    1.6550    2.1361   -0.3227 H   0  0  0  0  0  0
    1.0190   -1.7336    1.7537 H   0  0  0  0  0  0
    3.0522   -2.9802    2.3690 H   0  0  0  0  0  0
    5.2050   -2.5130    1.2233 H   0  0  0  0  0  0
    5.3080   -0.7886   -0.5597 H   0  0  0  0  0  0
    3.2897    0.4606   -1.2018 H   0  0  0  0  0  0
   -2.4994    3.5459   -1.3721 H   0  0  0  0  0  0
   -5.3566    2.1754   -1.6375 H   0  0  0  0  0  0
   -4.5500   -2.1194   -0.6500 H   0  0  0  0  0  0
  1  2  2  0  0  0
  1  4  1  0  0  0
  1 13  1  0  0  0
  2  3  1  0  0  0
  2 14  1  0  0  0
  3  6  2  0  0  0
  3 21  1  0  0  0
  4  5  2  0  0  0
  4 12  1  0  0  0
  5  6  1  0  0  0
  5 10  1  0  0  0
  6  7  1  0  0  0
  7  8  1  0  0  0
  8  9  2  0  0  0
  8 15  1  0  0  0
  9 10  1  0  0  0
  9 22  1  0  0  0
 10 11  2  0  0  0
 12 28  1  0  0  0
 13 29  1  0  0  0
 14 30  1  0  0  0
 15 16  2  0  0  0
 15 20  1  0  0  0
 16 17  1  0  0  0
 16 23  1  0  0  0
 17 18  2  0  0  0
 17 24  1  0  0  0
 18 19  1  0  0  0
 18 25  1  0  0  0
 19 20  2  0  0  0
 19 26  1  0  0  0
 20 27  1  0  0  0
M  END
>  <Name>
tox-39

>  <substance>
Baicalein

>  <CASRN>
491-67-8

>  <from_NCI>
1

>  <RBA>
0.000900

>  <method>
RUC

>  <chemical_class>
Flavone

>  <set>
0

$$$$
tox-40
  Cerius2 12190218263D 1   1.00000                          
 Structure written by MMmdl.
 39 40  0  0  0  0  0  0  0  0999 V2000
   -0.7875   -1.0482   -0.3257 N   0  0  0  0  0  0
   -2.0847   -1.5612   -0.2633 C   0  0  0  0  0  0
    0.0493   -2.1507   -0.5520 C   0  0  0  0  0  0
   -0.4325    0.3086   -0.1558 C   0  0  0  0  0  0
   -1.9552   -2.9071   -0.5868 C   0  0  0  0  0  0
   -3.3384   -0.9781   -0.0108 C   0  0  0  0  0  0
   -0.6469   -3.2440   -0.7858 N   0  0  0  0  0  0
    1.4238   -2.0825   -0.4647 N   0  0  0  0  0  0
    0.7498    0.6416   -0.7786 N   0  0  0  0  0  0
   -1.1682    1.0782    0.4527 O   0  0  0  0  0  0
   -3.0974   -3.7206   -0.6603 C   0  0  0  0  0  0
   -4.4663   -1.8039   -0.0818 C   0  0  0  0  0  0
    2.2488   -3.1422   -0.7016 C   0  0  0  0  0  0
    1.2938    1.9866   -0.7245 C   0  0  0  0  0  0
   -4.3509   -3.1550   -0.4022 C   0  0  0  0  0  0
    3.5323   -2.7405   -0.4821 O   0  0  0  0  0  0
    1.9486   -4.2748   -1.0567 O   0  0  0  0  0  0
    2.8191    1.9652   -0.7496 C   0  0  0  0  0  0
    4.5225   -3.7523   -0.6965 C   0  0  0  0  0  0
    3.3965    3.3784   -0.7039 C   0  0  0  0  0  0
    4.9165    3.3601   -0.7277 C   0  0  0  0  0  0
   -3.4457    0.0771    0.2268 H   0  0  0  0  0  0
    1.8730   -1.2269   -0.1609 H   0  0  0  0  0  0
    1.1245    0.0264   -1.4954 H   0  0  0  0  0  0
   -3.0069   -4.7738   -0.9099 H   0  0  0  0  0  0
   -5.4517   -1.3800    0.1116 H   0  0  0  0  0  0
    0.9297    2.4905    0.1776 H   0  0  0  0  0  0
    0.8997    2.5260   -1.5927 H   0  0  0  0  0  0
   -5.2431   -3.7775   -0.4542 H   0  0  0  0  0  0
    3.1655    1.4512   -1.6551 H   0  0  0  0  0  0
    3.1911    1.3827    0.1026 H   0  0  0  0  0  0
    5.5029   -3.3142   -0.4907 H   0  0  0  0  0  0
    4.5037   -4.0899   -1.7373 H   0  0  0  0  0  0
    4.3652   -4.5911   -0.0115 H   0  0  0  0  0  0
    3.0574    3.8902    0.2042 H   0  0  0  0  0  0
    3.0303    3.9581   -1.5592 H   0  0  0  0  0  0
    5.3084    4.3815   -0.6948 H   0  0  0  0  0  0
    5.2889    2.8825   -1.6396 H   0  0  0  0  0  0
    5.3158    2.8150    0.1336 H   0  0  0  0  0  0
  1  2  1  0  0  0
  1  3  1  0  0  0
  1  4  1  0  0  0
  2  5  2  0  0  0
  2  6  1  0  0  0
  3  7  2  0  0  0
  3  8  1  0  0  0
  4  9  1  0  0  0
  4 10  2  0  0  0
  5  7  1  0  0  0
  5 11  1  0  0  0
  6 12  2  0  0  0
  6 22  1  0  0  0
  8 13  1  0  0  0
  8 23  1  0  0  0
  9 14  1  0  0  0
  9 24  1  0  0  0
 11 15  2  0  0  0
 11 25  1  0  0  0
 12 15  1  0  0  0
 12 26  1  0  0  0
 13 16  1  0  0  0
 13 17  2  0  0  0
 14 18  1  0  0  0
 14 27  1  0  0  0
 14 28  1  0  0  0
 15 29  1  0  0  0
 16 19  1  0  0  0
 18 20  1  0  0  0
 18 30  1  0  0  0
 18 31  1  0  0  0
 19 32  1  0  0  0
 19 33  1  0  0  0
 19 34  1  0  0  0
 20 21  1  0  0  0
 20 35  1  0  0  0
 20 36  1  0  0  0
 21 37  1  0  0  0
 21 38  1  0  0  0
 21 39  1  0  0  0
M  END
>  <Name>
tox-40

>  <substance>
Benomyl

>  <CASRN>
17804-35-2

>  <from_NCI>
1

>  <RBA>
0.000000

>  <method>
hERa

>  <chemical_class>
Carbamate; Imidazole

>  <set>
2

$$$$
tox-41
  Cerius2 12190218263D 1   1.00000                          
 Structure written by MMmdl.
 30 33  0  0  0  0  0  0  0  0999 V2000
    0.5851   -0.2856   -0.0161 C   0  0  0  0  0  0
    1.8413    0.4225   -0.0222 C   0  0  0  0  0  0
    0.5908   -1.7025   -0.0169 C   0  0  0  0  0  0
   -0.6866    0.3446   -0.0092 C   0  0  0  0  0  0
    3.0528   -0.3170   -0.0290 C   0  0  0  0  0  0
    1.9619    1.8359   -0.0218 C   0  0  0  0  0  0
   -0.6152   -2.4248   -0.0109 C   0  0  0  0  0  0
    1.8043   -2.3955   -0.0238 C   0  0  0  0  0  0
   -1.8972   -0.3743   -0.0031 C   0  0  0  0  0  0
    3.0175   -1.7131   -0.0297 C   0  0  0  0  0  0
    4.2944    0.3414   -0.0349 C   0  0  0  0  0  0
    3.2035    2.4795   -0.0277 C   0  0  0  0  0  0
   -1.8594   -1.7802   -0.0039 C   0  0  0  0  0  0
   -3.1424    0.2777    0.0038 C   0  0  0  0  0  0
    4.3706    1.7314   -0.0343 C   0  0  0  0  0  0
   -3.0642   -2.5038    0.0024 C   0  0  0  0  0  0
   -4.3323   -0.4521    0.0100 C   0  0  0  0  0  0
   -4.2932   -1.8427    0.0093 C   0  0  0  0  0  0
   -0.7516    1.4315   -0.0084 H   0  0  0  0  0  0
    1.0802    2.4736   -0.0168 H   0  0  0  0  0  0
   -0.5855   -3.5155   -0.0115 H   0  0  0  0  0  0
    1.8218   -3.4854   -0.0245 H   0  0  0  0  0  0
    3.9406   -2.2926   -0.0349 H   0  0  0  0  0  0
    5.2228   -0.2301   -0.0402 H   0  0  0  0  0  0
    3.2515    3.5672   -0.0271 H   0  0  0  0  0  0
   -3.1950    1.3662    0.0044 H   0  0  0  0  0  0
    5.3398    2.2262   -0.0389 H   0  0  0  0  0  0
   -3.0536   -3.5934    0.0020 H   0  0  0  0  0  0
   -5.2891    0.0671    0.0153 H   0  0  0  0  0  0
   -5.2192   -2.4150    0.0142 H   0  0  0  0  0  0
  1  2  2  0  0  0
  1  3  1  0  0  0
  1  4  1  0  0  0
  2  5  1  0  0  0
  2  6  1  0  0  0
  3  7  1  0  0  0
  3  8  2  0  0  0
  4  9  2  0  0  0
  4 19  1  0  0  0
  5 10  2  0  0  0
  5 11  1  0  0  0
  6 12  2  0  0  0
  6 20  1  0  0  0
  7 13  2  0  0  0
  7 21  1  0  0  0
  8 10  1  0  0  0
  8 22  1  0  0  0
  9 13  1  0  0  0
  9 14  1  0  0  0
 10 23  1  0  0  0
 11 15  2  0  0  0
 11 24  1  0  0  0
 12 15  1  0  0  0
 12 25  1  0  0  0
 13 16  1  0  0  0
 14 17  2  0  0  0
 14 26  1  0  0  0
 15 27  1  0  0  0
 16 18  2  0  0  0
 16 28  1  0  0  0
 17 18  1  0  0  0
 17 29  1  0  0  0
 18 30  1  0  0  0
M  END
>  <Name>
tox-41

>  <substance>
Benz[a ]anthracene

>  <CASRN>
56-55-3

>  <from_NCI>
1

>  <RBA>
0.000000

>  <method>
GST-hERadef

>  <chemical_class>
Polycyclic aromatic hydrocarbon

>  <set>
0

$$$$
tox-42
  Cerius2 12190218263D 1   1.00000                          
 Structure written by MMmdl.
 39 41  0  0  0  0  0  0  0  0999 V2000
    1.0643    1.3583   -0.2139 C   0  0  0  0  0  0
    1.6043    1.9827    0.9194 C   0  0  0  0  0  0
    2.7847    2.7219    0.8210 C   0  0  0  0  0  0
    3.4312    2.8452   -0.4081 C   0  0  0  0  0  0
    2.8995    2.2310   -1.5411 C   0  0  0  0  0  0
    1.7193    1.4907   -1.4467 C   0  0  0  0  0  0
   -1.3887    1.2728   -0.4917 C   0  0  0  0  0  0
   -0.1902    0.5781   -0.1149 C   0  0  0  0  0  0
   -2.3520    1.8487   -0.8010 N   0  0  0  0  0  0
   -0.2096   -0.7166    0.3034 C   0  0  0  0  0  0
   -1.5054   -1.4378    0.3930 C   0  0  0  0  0  0
    1.0510   -1.4152    0.6651 C   0  0  0  0  0  0
    1.8592   -1.9857   -0.3282 C   0  0  0  0  0  0
    3.0404   -2.6457    0.0187 C   0  0  0  0  0  0
    3.4097   -2.7393    1.3561 C   0  0  0  0  0  0
    2.6166   -2.1851    2.3556 C   0  0  0  0  0  0
    1.4348   -1.5244    2.0093 C   0  0  0  0  0  0
   -2.3072   -1.3189    1.5368 C   0  0  0  0  0  0
   -3.5243   -1.9996    1.6151 C   0  0  0  0  0  0
   -3.9367   -2.7981    0.5537 C   0  0  0  0  0  0
   -3.1517   -2.9293   -0.5876 C   0  0  0  0  0  0
   -1.9337   -2.2488   -0.6672 C   0  0  0  0  0  0
    4.5692   -3.3922    1.6555 O   0  0  0  0  0  0
   -5.1307   -3.4471    0.6676 O   0  0  0  0  0  0
    1.1121    1.8963    1.8870 H   0  0  0  0  0  0
    3.2005    3.2020    1.7051 H   0  0  0  0  0  0
    4.3519    3.4215   -0.4831 H   0  0  0  0  0  0
    3.4052    2.3275   -2.5003 H   0  0  0  0  0  0
    1.3197    1.0149   -2.3411 H   0  0  0  0  0  0
    1.5765   -1.9195   -1.3773 H   0  0  0  0  0  0
    3.6643   -3.0832   -0.7571 H   0  0  0  0  0  0
    2.8987   -2.2563    3.4033 H   0  0  0  0  0  0
    0.8189   -1.0926    2.7964 H   0  0  0  0  0  0
   -1.9910   -0.6987    2.3738 H   0  0  0  0  0  0
   -4.1427   -1.9035    2.5046 H   0  0  0  0  0  0
   -3.4679   -3.5532   -1.4202 H   0  0  0  0  0  0
   -1.3233   -2.3571   -1.5624 H   0  0  0  0  0  0
    4.6912   -3.3747    2.6288 H   0  0  0  0  0  0
   -5.2806   -3.9653   -0.1520 H   0  0  0  0  0  0
  1  2  2  0  0  0
  1  6  1  0  0  0
  1  8  1  0  0  0
  2  3  1  0  0  0
  2 25  1  0  0  0
  3  4  2  0  0  0
  3 26  1  0  0  0
  4  5  1  0  0  0
  4 27  1  0  0  0
  5  6  2  0  0  0
  5 28  1  0  0  0
  6 29  1  0  0  0
  7  8  1  0  0  0
  7  9  3  0  0  0
  8 10  2  0  0  0
 10 11  1  0  0  0
 10 12  1  0  0  0
 11 18  2  0  0  0
 11 22  1  0  0  0
 12 13  2  0  0  0
 12 17  1  0  0  0
 13 14  1  0  0  0
 13 30  1  0  0  0
 14 15  2  0  0  0
 14 31  1  0  0  0
 15 16  1  0  0  0
 15 23  1  0  0  0
 16 17  2  0  0  0
 16 32  1  0  0  0
 17 33  1  0  0  0
 18 19  1  0  0  0
 18 34  1  0  0  0
 19 20  2  0  0  0
 19 35  1  0  0  0
 20 21  1  0  0  0
 20 24  1  0  0  0
 21 22  2  0  0  0
 21 36  1  0  0  0
 22 37  1  0  0  0
 23 38  1  0  0  0
 24 39  1  0  0  0
M  END
>  <Name>
tox-42

>  <substance>
Benzeneacetonitrile a-[bis(4- hydroxyphenyl) methylene]

>  <CASRN>
66422-14-8

>  <from_NCI>
0

>  <RBA>
100.000000

>  <method>
MCF-7 cytosol

>  <chemical_class>
Diphenolalkane; Bisphenol

>  <set>
2

$$$$
tox-43
  Cerius2 12190218263D 1   1.00000                          
 Structure written by MMmdl.
 28 31  0  0  0  0  0  0  0  0999 V2000
    0.0463   -0.2018    0.1096 C   0  0  0  0  0  0
    0.0846    1.1905    0.2145 C   0  0  0  0  0  0
    1.1602   -1.0187    0.4383 C   0  0  0  0  0  0
   -1.2151   -0.5298   -0.3452 N   0  0  0  0  0  0
   -1.1931    1.6933   -0.1913 C   0  0  0  0  0  0
    1.2722    1.8041    0.6629 C   0  0  0  0  0  0
    2.3412   -0.3784    0.8864 C   0  0  0  0  0  0
    1.1109   -2.4230    0.3286 C   0  0  0  0  0  0
   -1.9820    0.5977   -0.5341 C   0  0  0  0  0  0
   -1.7513    2.9847   -0.2982 C   0  0  0  0  0  0
    2.3832    1.0167    0.9928 C   0  0  0  0  0  0
    3.4515   -1.1712    1.2157 C   0  0  0  0  0  0
    2.2296   -3.1869    0.6625 C   0  0  0  0  0  0
   -3.3038    0.7239   -0.9794 C   0  0  0  0  0  0
   -3.0713    3.1299   -0.7417 C   0  0  0  0  0  0
    3.3954   -2.5636    1.1044 C   0  0  0  0  0  0
   -3.8341    2.0137   -1.0766 C   0  0  0  0  0  0
   -1.5377   -1.4732   -0.5181 H   0  0  0  0  0  0
    1.3318    2.8868    0.7547 H   0  0  0  0  0  0
    0.2128   -2.9323   -0.0137 H   0  0  0  0  0  0
   -1.1651    3.8639   -0.0393 H   0  0  0  0  0  0
    3.2891    1.5155    1.3371 H   0  0  0  0  0  0
    4.3755   -0.7100    1.5638 H   0  0  0  0  0  0
    2.1917   -4.2717    0.5778 H   0  0  0  0  0  0
   -3.9008   -0.1463   -1.2413 H   0  0  0  0  0  0
   -3.5040    4.1259   -0.8248 H   0  0  0  0  0  0
    4.2665   -3.1631    1.3642 H   0  0  0  0  0  0
   -4.8598    2.1461   -1.4198 H   0  0  0  0  0  0
  1  2  2  0  0  0
  1  3  1  0  0  0
  1  4  1  0  0  0
  2  5  1  0  0  0
  2  6  1  0  0  0
  3  7  2  0  0  0
  3  8  1  0  0  0
  4  9  1  0  0  0
  4 18  1  0  0  0
  5  9  2  0  0  0
  5 10  1  0  0  0
  6 11  2  0  0  0
  6 19  1  0  0  0
  7 11  1  0  0  0
  7 12  1  0  0  0
  8 13  2  0  0  0
  8 20  1  0  0  0
  9 14  1  0  0  0
 10 15  2  0  0  0
 10 21  1  0  0  0
 11 22  1  0  0  0
 12 16  2  0  0  0
 12 23  1  0  0  0
 13 16  1  0  0  0
 13 24  1  0  0  0
 14 17  2  0  0  0
 14 25  1  0  0  0
 15 17  1  0  0  0
 15 26  1  0  0  0
 16 27  1  0  0  0
 17 28  1  0  0  0
M  END
>  <Name>
tox-43

>  <substance>
Benzo[a ]carbazole

>  <CASRN>
239-01-0

>  <from_NCI>
1

>  <RBA>
0.000000

>  <method>
GST-hERadef

>  <chemical_class>
Polycyclic aromatic hydrocarbon

>  <set>
2

$$$$
tox-44
  Cerius2 12190218263D 1   1.00000                          
 Structure written by MMmdl.
 28 31  0  0  0  0  0  0  0  0999 V2000
   -0.9815   -1.9213   -0.4373 N   0  0  0  0  0  0
    0.1759   -1.5373    0.1981 C   0  0  0  0  0  0
    1.1099   -2.3372    0.8621 C   0  0  0  0  0  0
    2.2162   -1.7122    1.4348 C   0  0  0  0  0  0
    2.3958   -0.3295    1.3535 C   0  0  0  0  0  0
    1.4419    0.4806    0.6762 C   0  0  0  0  0  0
    0.2928   -0.1482    0.0785 C   0  0  0  0  0  0
   -0.8664    0.2939   -0.6709 C   0  0  0  0  0  0
   -1.3532    1.5405   -1.1303 C   0  0  0  0  0  0
   -2.5529    1.6092   -1.8523 C   0  0  0  0  0  0
   -3.2812    0.4586   -2.1276 C   0  0  0  0  0  0
   -2.8321   -0.7877   -1.6908 C   0  0  0  0  0  0
   -1.6307   -0.8362   -0.9707 C   0  0  0  0  0  0
    1.6691    1.8743    0.6219 C   0  0  0  0  0  0
    2.7970    2.4476    1.2148 C   0  0  0  0  0  0
    3.7215    1.6463    1.8736 C   0  0  0  0  0  0
    3.5220    0.2679    1.9421 C   0  0  0  0  0  0
   -1.3103   -2.8768   -0.5027 H   0  0  0  0  0  0
    0.9838   -3.4152    0.9339 H   0  0  0  0  0  0
    2.9473   -2.3329    1.9539 H   0  0  0  0  0  0
   -0.8178    2.4652   -0.9387 H   0  0  0  0  0  0
   -2.9156    2.5757   -2.1999 H   0  0  0  0  0  0
   -4.2117    0.5286   -2.6896 H   0  0  0  0  0  0
   -3.4004   -1.6900   -1.9051 H   0  0  0  0  0  0
    0.9768    2.5404    0.1198 H   0  0  0  0  0  0
    2.9506    3.5242    1.1601 H   0  0  0  0  0  0
    4.6002    2.0929    2.3356 H   0  0  0  0  0  0
    4.2608   -0.3402    2.4642 H   0  0  0  0  0  0
  1  2  1  0  0  0
  1 13  1  0  0  0
  1 18  1  0  0  0
  2  3  2  0  0  0
  2  7  1  0  0  0
  3  4  1  0  0  0
  3 19  1  0  0  0
  4  5  2  0  0  0
  4 20  1  0  0  0
  5  6  1  0  0  0
  5 17  1  0  0  0
  6  7  2  0  0  0
  6 14  1  0  0  0
  7  8  1  0  0  0
  8  9  2  0  0  0
  8 13  1  0  0  0
  9 10  1  0  0  0
  9 21  1  0  0  0
 10 11  2  0  0  0
 10 22  1  0  0  0
 11 12  1  0  0  0
 11 23  1  0  0  0
 12 13  2  0  0  0
 12 24  1  0  0  0
 14 15  2  0  0  0
 14 25  1  0  0  0
 15 16  1  0  0  0
 15 26  1  0  0  0
 16 17  2  0  0  0
 16 27  1  0  0  0
 17 28  1  0  0  0
M  END
>  <Name>
tox-44

>  <substance>
Benzo[c ]carbazole

>  <CASRN>
0.000000

>  <from_NCI>
0

>  <RBA>
0.000000

>  <method>
GST-hERadef

>  <chemical_class>
Polycyclic aromatic hydrocarbon

>  <set>
0

$$$$
tox-45
  Cerius2 12190218263D 1   1.00000                          
 Structure written by MMmdl.
 32 36  0  0  0  0  0  0  0  0999 V2000
    0.1950   -0.0266    1.0168 C   0  0  0  0  0  0
   -0.0830   -1.3499    0.9358 C   0  0  0  0  0  0
   -0.8732    0.6407    1.5290 C   0  0  0  0  0  0
    1.4103    0.5636    0.6274 C   0  0  0  0  0  0
   -1.3737   -1.5255    1.4143 C   0  0  0  0  0  0
    0.9016   -2.2263    0.4263 C   0  0  0  0  0  0
   -1.8593   -0.3022    1.7786 C   0  0  0  0  0  0
   -0.7930    2.0418    1.6983 C   0  0  0  0  0  0
    2.4204   -0.3161    0.1076 C   0  0  0  0  0  0
    1.4722    1.9711    0.8048 C   0  0  0  0  0  0
   -2.1700   -2.6875    1.5588 C   0  0  0  0  0  0
    2.1459   -1.7162    0.0140 C   0  0  0  0  0  0
   -3.1669   -0.1746    2.3069 C   0  0  0  0  0  0
    0.3857    2.6959    1.3323 C   0  0  0  0  0  0
    3.6897    0.1298   -0.3232 C   0  0  0  0  0  0
   -3.4608   -2.5699    2.0792 C   0  0  0  0  0  0
    3.1222   -2.5887   -0.4916 C   0  0  0  0  0  0
   -3.9582   -1.3161    2.4524 C   0  0  0  0  0  0
    4.6479   -0.7556   -0.8235 C   0  0  0  0  0  0
    4.3644   -2.1125   -0.9075 C   0  0  0  0  0  0
    0.6838   -3.2905    0.3589 H   0  0  0  0  0  0
   -1.6314    2.6010    2.1055 H   0  0  0  0  0  0
    2.3697    2.5243    0.5340 H   0  0  0  0  0  0
   -1.7836   -3.6617    1.2689 H   0  0  0  0  0  0
   -3.5528    0.7999    2.5967 H   0  0  0  0  0  0
    0.4672    3.7750    1.4550 H   0  0  0  0  0  0
    3.9551    1.1846   -0.2755 H   0  0  0  0  0  0
   -4.0824   -3.4564    2.1950 H   0  0  0  0  0  0
    2.9224   -3.6577   -0.5670 H   0  0  0  0  0  0
   -4.9653   -1.2308    2.8574 H   0  0  0  0  0  0
    5.6172   -0.3800   -1.1473 H   0  0  0  0  0  0
    5.1099   -2.8034   -1.2971 H   0  0  0  0  0  0
  1  2  2  0  0  0
  1  3  1  0  0  0
  1  4  1  0  0  0
  2  5  1  0  0  0
  2  6  1  0  0  0
  3  7  1  0  0  0
  3  8  2  0  0  0
  4  9  2  0  0  0
  4 10  1  0  0  0
  5  7  2  0  0  0
  5 11  1  0  0  0
  6 12  2  0  0  0
  6 21  1  0  0  0
  7 13  1  0  0  0
  8 14  1  0  0  0
  8 22  1  0  0  0
  9 12  1  0  0  0
  9 15  1  0  0  0
 10 14  2  0  0  0
 10 23  1  0  0  0
 11 16  2  0  0  0
 11 24  1  0  0  0
 12 17  1  0  0  0
 13 18  2  0  0  0
 13 25  1  0  0  0
 14 26  1  0  0  0
 15 19  2  0  0  0
 15 27  1  0  0  0
 16 18  1  0  0  0
 16 28  1  0  0  0
 17 20  2  0  0  0
 17 29  1  0  0  0
 18 30  1  0  0  0
 19 20  1  0  0  0
 19 31  1  0  0  0
 20 32  1  0  0  0
M  END
>  <Name>
tox-45

>  <substance>
Benzo[b ]fluoranthene

>  <CASRN>
205-99-2

>  <from_NCI>
1

>  <RBA>
17.000000

>  <method>
MCF-7 cells

>  <chemical_class>
Polycyclic aromatic hydrocarbon

>  <set>
1

$$$$
tox-46
  Cerius2 12190218263D 1   1.00000                          
 Structure written by MMmdl.
 32 36  0  0  0  0  0  0  0  0999 V2000
    2.3683   -0.1180    0.5323 C   0  0  0  0  0  0
    1.6448   -1.2640    0.5706 C   0  0  0  0  0  0
    1.5560    0.9646    0.6121 C   0  0  0  0  0  0
    3.7663   -0.0602    0.4249 C   0  0  0  0  0  0
    0.3132   -0.8863    0.6797 C   0  0  0  0  0  0
    2.3309   -2.5029    0.4982 C   0  0  0  0  0  0
    0.2588    0.4783    0.7050 C   0  0  0  0  0  0
    2.1411    2.2559    0.5868 C   0  0  0  0  0  0
    4.4460   -1.2912    0.3531 C   0  0  0  0  0  0
    4.3457    1.2228    0.4000 C   0  0  0  0  0  0
   -0.8722   -1.6559    0.7597 C   0  0  0  0  0  0
    3.7289   -2.5019    0.3899 C   0  0  0  0  0  0
   -0.9837    1.1479    0.8115 C   0  0  0  0  0  0
    3.5346    2.3704    0.4807 C   0  0  0  0  0  0
   -2.1171   -1.0135    0.8660 C   0  0  0  0  0  0
   -2.1735    0.4052    0.8922 C   0  0  0  0  0  0
   -3.3102   -1.7484    0.9471 C   0  0  0  0  0  0
   -3.4210    1.0397    0.9984 C   0  0  0  0  0  0
   -4.5416   -1.0993    1.0523 C   0  0  0  0  0  0
   -4.5969    0.2915    1.0779 C   0  0  0  0  0  0
    1.7817   -3.4407    0.5262 H   0  0  0  0  0  0
    1.5190    3.1454    0.6489 H   0  0  0  0  0  0
    5.5313   -1.3153    0.2686 H   0  0  0  0  0  0
    5.4255    1.3364    0.3181 H   0  0  0  0  0  0
   -0.8073   -2.7421    0.7379 H   0  0  0  0  0  0
    4.2666   -3.4475    0.3335 H   0  0  0  0  0  0
   -1.0053    2.2359    0.8300 H   0  0  0  0  0  0
    3.9951    3.3572    0.4604 H   0  0  0  0  0  0
   -3.2905   -2.8377    0.9288 H   0  0  0  0  0  0
   -3.4878    2.1271    1.0202 H   0  0  0  0  0  0
   -5.4592   -1.6820    1.1143 H   0  0  0  0  0  0
   -5.5577    0.7969    1.1599 H   0  0  0  0  0  0
  1  2  2  0  0  0
  1  3  1  0  0  0
  1  4  1  0  0  0
  2  5  1  0  0  0
  2  6  1  0  0  0
  3  7  1  0  0  0
  3  8  2  0  0  0
  4  9  2  0  0  0
  4 10  1  0  0  0
  5  7  2  0  0  0
  5 11  1  0  0  0
  6 12  2  0  0  0
  6 21  1  0  0  0
  7 13  1  0  0  0
  8 14  1  0  0  0
  8 22  1  0  0  0
  9 12  1  0  0  0
  9 23  1  0  0  0
 10 14  2  0  0  0
 10 24  1  0  0  0
 11 15  2  0  0  0
 11 25  1  0  0  0
 12 26  1  0  0  0
 13 16  2  0  0  0
 13 27  1  0  0  0
 14 28  1  0  0  0
 15 16  1  0  0  0
 15 17  1  0  0  0
 16 18  1  0  0  0
 17 19  2  0  0  0
 17 29  1  0  0  0
 18 20  2  0  0  0
 18 30  1  0  0  0
 19 20  1  0  0  0
 19 31  1  0  0  0
 20 32  1  0  0  0
M  END
>  <Name>
tox-46

>  <substance>
Benzo[k ]fluoranthene

>  <CASRN>
207-08-9

>  <from_NCI>
1

>  <RBA>
27.000000

>  <method>
MCF-7 cells

>  <chemical_class>
Polycyclic aromatic hydrocarbon

>  <set>
0

$$$$
tox-47
  Cerius2 12190218263D 1   1.00000                          
 Structure written by MMmdl.
 29 32  0  0  0  0  0  0  0  0999 V2000
    0.0483   -0.1958    0.0976 C   0  0  0  0  0  0
   -0.3717    1.1280    0.1678 C   0  0  0  0  0  0
    1.3636   -0.5815    0.4041 C   0  0  0  0  0  0
   -1.0965   -1.0815   -0.3400 C   0  0  0  0  0  0
   -1.7129    1.2149   -0.1870 C   0  0  0  0  0  0
    0.5382    2.1294    0.5572 C   0  0  0  0  0  0
    2.2771    0.4292    0.7960 C   0  0  0  0  0  0
    1.8076   -1.9166    0.3391 C   0  0  0  0  0  0
   -2.1847   -0.0512   -0.4932 C   0  0  0  0  0  0
   -2.5874    2.3217   -0.2711 C   0  0  0  0  0  0
    1.8524    1.7713    0.8672 C   0  0  0  0  0  0
    3.5990    0.0745    1.1090 C   0  0  0  0  0  0
    3.1262   -2.2482    0.6545 C   0  0  0  0  0  0
   -3.5008   -0.2702   -0.8836 C   0  0  0  0  0  0
   -3.9122    2.1140   -0.6622 C   0  0  0  0  0  0
    4.0204   -1.2543    1.0388 C   0  0  0  0  0  0
   -4.3652    0.8234   -0.9667 C   0  0  0  0  0  0
   -1.3532   -1.8077    0.4367 H   0  0  0  0  0  0
   -0.8787   -1.5644   -1.2970 H   0  0  0  0  0  0
    0.2294    3.1701    0.6183 H   0  0  0  0  0  0
    1.1294   -2.7149    0.0414 H   0  0  0  0  0  0
   -2.2391    3.3244   -0.0355 H   0  0  0  0  0  0
    2.5500    2.5529    1.1678 H   0  0  0  0  0  0
    4.3171    0.8361    1.4125 H   0  0  0  0  0  0
    3.4541   -3.2849    0.5996 H   0  0  0  0  0  0
   -3.8547   -1.2708   -1.1203 H   0  0  0  0  0  0
   -4.5965    2.9582   -0.7309 H   0  0  0  0  0  0
    5.0491   -1.5120    1.2850 H   0  0  0  0  0  0
   -5.4003    0.6730   -1.2705 H   0  0  0  0  0  0
  1  2  2  0  0  0
  1  3  1  0  0  0
  1  4  1  0  0  0
  2  5  1  0  0  0
  2  6  1  0  0  0
  3  7  2  0  0  0
  3  8  1  0  0  0
  4  9  1  0  0  0
  4 18  1  0  0  0
  4 19  1  0  0  0
  5  9  2  0  0  0
  5 10  1  0  0  0
  6 11  2  0  0  0
  6 20  1  0  0  0
  7 11  1  0  0  0
  7 12  1  0  0  0
  8 13  2  0  0  0
  8 21  1  0  0  0
  9 14  1  0  0  0
 10 15  2  0  0  0
 10 22  1  0  0  0
 11 23  1  0  0  0
 12 16  2  0  0  0
 12 24  1  0  0  0
 13 16  1  0  0  0
 13 25  1  0  0  0
 14 17  2  0  0  0
 14 26  1  0  0  0
 15 17  1  0  0  0
 15 27  1  0  0  0
 16 28  1  0  0  0
 17 29  1  0  0  0
M  END
>  <Name>
tox-47

>  <substance>
Benzo[a ]fluorene

>  <CASRN>
238-84-6

>  <from_NCI>
1

>  <RBA>
0.000000

>  <method>
RUC

>  <chemical_class>
Polycyclic aromatic hydrocarbon

>  <set>
2

$$$$
tox-48
  Cerius2 12190218263D 1   1.00000                          
 Structure written by MMmdl.
 29 32  0  0  0  0  0  0  0  0999 V2000
    0.0608   -0.0397   -0.7723 C   0  0  0  0  0  0
   -1.2508   -0.0642   -1.2341 C   0  0  0  0  0  0
    0.5476    1.2541   -0.8506 C   0  0  0  0  0  0
    0.8934   -1.0679   -0.2761 C   0  0  0  0  0  0
   -1.6249    1.2159   -1.6161 C   0  0  0  0  0  0
   -2.1760   -1.1245   -1.3572 C   0  0  0  0  0  0
   -0.4956    2.1915   -1.4040 C   0  0  0  0  0  0
    1.8405    1.5775   -0.4536 C   0  0  0  0  0  0
    2.2045   -0.7690    0.1324 C   0  0  0  0  0  0
   -2.8906    1.4914   -2.1200 C   0  0  0  0  0  0
   -3.4511   -0.8591   -1.8625 C   0  0  0  0  0  0
    2.6815    0.5671    0.0421 C   0  0  0  0  0  0
    3.0554   -1.7685    0.6296 C   0  0  0  0  0  0
   -3.8050    0.4429   -2.2415 C   0  0  0  0  0  0
    3.9926    0.8541    0.4526 C   0  0  0  0  0  0
    4.3564   -1.4622    1.0328 C   0  0  0  0  0  0
    4.8239   -0.1540    0.9445 C   0  0  0  0  0  0
    0.5126   -2.0853   -0.2137 H   0  0  0  0  0  0
   -1.9048   -2.1358   -1.0643 H   0  0  0  0  0  0
   -0.1695    2.6298   -2.3514 H   0  0  0  0  0  0
   -0.7673    2.9564   -0.6710 H   0  0  0  0  0  0
    2.1884    2.6059   -0.5299 H   0  0  0  0  0  0
   -3.1678    2.5007   -2.4148 H   0  0  0  0  0  0
   -4.1740   -1.6672   -1.9626 H   0  0  0  0  0  0
    2.7105   -2.7992    0.7075 H   0  0  0  0  0  0
   -4.8022    0.6377   -2.6341 H   0  0  0  0  0  0
    4.3801    1.8708    0.3926 H   0  0  0  0  0  0
    5.0052   -2.2478    1.4166 H   0  0  0  0  0  0
    5.8386    0.0840    1.2591 H   0  0  0  0  0  0
  1  2  1  0  0  0
  1  3  2  0  0  0
  1  4  1  0  0  0
  2  5  2  0  0  0
  2  6  1  0  0  0
  3  7  1  0  0  0
  3  8  1  0  0  0
  4  9  2  0  0  0
  4 18  1  0  0  0
  5  7  1  0  0  0
  5 10  1  0  0  0
  6 11  2  0  0  0
  6 19  1  0  0  0
  7 20  1  0  0  0
  7 21  1  0  0  0
  8 12  2  0  0  0
  8 22  1  0  0  0
  9 12  1  0  0  0
  9 13  1  0  0  0
 10 14  2  0  0  0
 10 23  1  0  0  0
 11 14  1  0  0  0
 11 24  1  0  0  0
 12 15  1  0  0  0
 13 16  2  0  0  0
 13 25  1  0  0  0
 14 26  1  0  0  0
 15 17  2  0  0  0
 15 27  1  0  0  0
 16 17  1  0  0  0
 16 28  1  0  0  0
 17 29  1  0  0  0
M  END
>  <Name>
tox-48

>  <substance>
Benzo[b ]fluorene

>  <CASRN>
243-17-4

>  <from_NCI>
1

>  <RBA>
0.000000

>  <method>
GST-hERadef

>  <chemical_class>
Polycyclic aromatic hydrocarbon

>  <set>
0

$$$$
tox-49
  Cerius2 12190218263D 1   1.00000                          
 Structure written by MMmdl.
 27 30  0  0  0  0  0  0  0  0999 V2000
   -0.5175    0.3202    0.0880 C   0  0  0  0  0  0
    0.7116   -0.3445    0.1643 C   0  0  0  0  0  0
   -1.7430   -0.3241    0.4654 C   0  0  0  0  0  0
   -0.2930    1.9284   -0.4981 S   0  0  0  0  0  0
    1.8228    0.4884   -0.2643 C   0  0  0  0  0  0
    0.7147   -1.6843    0.6287 C   0  0  0  0  0  0
   -1.6925   -1.6626    0.9235 C   0  0  0  0  0  0
   -2.9927    0.3334    0.3941 C   0  0  0  0  0  0
    1.4020    1.7585   -0.6521 C   0  0  0  0  0  0
    3.2121    0.2027   -0.3397 C   0  0  0  0  0  0
   -0.4701   -2.3250    0.9999 C   0  0  0  0  0  0
   -2.8836   -2.3053    1.2961 C   0  0  0  0  0  0
   -4.1642   -0.3259    0.7698 C   0  0  0  0  0  0
    2.3109    2.7360   -1.1054 C   0  0  0  0  0  0
    4.1189    1.1676   -0.7884 C   0  0  0  0  0  0
   -4.1097   -1.6416    1.2196 C   0  0  0  0  0  0
    3.6699    2.4231   -1.1675 C   0  0  0  0  0  0
    1.6536   -2.2320    0.7008 H   0  0  0  0  0  0
   -3.0713    1.3619    0.0471 H   0  0  0  0  0  0
    3.5838   -0.7779   -0.0462 H   0  0  0  0  0  0
   -0.4174   -3.3555    1.3509 H   0  0  0  0  0  0
   -2.8680   -3.3354    1.6518 H   0  0  0  0  0  0
   -5.1211    0.1902    0.7107 H   0  0  0  0  0  0
    1.9632    3.7229   -1.4040 H   0  0  0  0  0  0
    5.1803    0.9296   -0.8391 H   0  0  0  0  0  0
   -5.0241   -2.1551    1.5126 H   0  0  0  0  0  0
    4.3799    3.1716   -1.5164 H   0  0  0  0  0  0
  1  2  2  0  0  0
  1  3  1  0  0  0
  1  4  1  0  0  0
  2  5  1  0  0  0
  2  6  1  0  0  0
  3  7  2  0  0  0
  3  8  1  0  0  0
  4  9  1  0  0  0
  5  9  2  0  0  0
  5 10  1  0  0  0
  6 11  2  0  0  0
  6 18  1  0  0  0
  7 11  1  0  0  0
  7 12  1  0  0  0
  8 13  2  0  0  0
  8 19  1  0  0  0
  9 14  1  0  0  0
 10 15  2  0  0  0
 10 20  1  0  0  0
 11 21  1  0  0  0
 12 16  2  0  0  0
 12 22  1  0  0  0
 13 16  1  0  0  0
 13 23  1  0  0  0
 14 17  2  0  0  0
 14 24  1  0  0  0
 15 17  1  0  0  0
 15 25  1  0  0  0
 16 26  1  0  0  0
 17 27  1  0  0  0
M  END
>  <Name>
tox-49

>  <substance>
Benzo[b ]naptho[2,1-d]thiophene

>  <CASRN>
239-35-0

>  <from_NCI>
1

>  <RBA>
0.000000

>  <method>
GST-hERadef

>  <chemical_class>
Polycyclic aromatic hydrocarbon

>  <set>
1

$$$$
tox-50
  Cerius2 12190218263D 1   1.00000                          
 Structure written by MMmdl.
 27 30  0  0  0  0  0  0  0  0999 V2000
    0.0596   -0.2076    0.9040 C   0  0  0  0  0  0
   -1.3119   -0.1586    1.3788 C   0  0  0  0  0  0
    0.5903   -1.4936    0.9773 C   0  0  0  0  0  0
    0.8963    0.8230    0.3992 C   0  0  0  0  0  0
   -1.7641   -1.4124    1.7926 C   0  0  0  0  0  0
   -2.2143    0.9333    1.4767 C   0  0  0  0  0  0
   -0.5506   -2.6095    1.6064 S   0  0  0  0  0  0
    1.9096   -1.7778    0.5692 C   0  0  0  0  0  0
    2.2151    0.5629   -0.0138 C   0  0  0  0  0  0
   -3.0684   -1.6029    2.2920 C   0  0  0  0  0  0
   -3.5091    0.7500    1.9715 C   0  0  0  0  0  0
    2.7225   -0.7466    0.0729 C   0  0  0  0  0  0
    3.0370    1.5874   -0.5120 C   0  0  0  0  0  0
   -3.9303   -0.5078    2.3749 C   0  0  0  0  0  0
    4.0404   -1.0009   -0.3407 C   0  0  0  0  0  0
    4.3448    1.3205   -0.9196 C   0  0  0  0  0  0
    4.8465    0.0262   -0.8339 C   0  0  0  0  0  0
    0.5005    1.8359    0.3334 H   0  0  0  0  0  0
   -1.9016    1.9287    1.1648 H   0  0  0  0  0  0
    2.2898   -2.7955    0.6414 H   0  0  0  0  0  0
   -3.4039   -2.5879    2.6100 H   0  0  0  0  0  0
   -4.1868    1.5997    2.0392 H   0  0  0  0  0  0
    2.6624    2.6080   -0.5871 H   0  0  0  0  0  0
   -4.9400   -0.6449    2.7596 H   0  0  0  0  0  0
    4.4529   -2.0079   -0.2817 H   0  0  0  0  0  0
    4.9702    2.1245   -1.3037 H   0  0  0  0  0  0
    5.8661   -0.1864   -1.1507 H   0  0  0  0  0  0
  1  2  1  0  0  0
  1  3  2  0  0  0
  1  4  1  0  0  0
  2  5  2  0  0  0
  2  6  1  0  0  0
  3  7  1  0  0  0
  3  8  1  0  0  0
  4  9  2  0  0  0
  4 18  1  0  0  0
  5  7  1  0  0  0
  5 10  1  0  0  0
  6 11  2  0  0  0
  6 19  1  0  0  0
  8 12  2  0  0  0
  8 20  1  0  0  0
  9 12  1  0  0  0
  9 13  1  0  0  0
 10 14  2  0  0  0
 10 21  1  0  0  0
 11 14  1  0  0  0
 11 22  1  0  0  0
 12 15  1  0  0  0
 13 16  2  0  0  0
 13 23  1  0  0  0
 14 24  1  0  0  0
 15 17  2  0  0  0
 15 25  1  0  0  0
 16 17  1  0  0  0
 16 26  1  0  0  0
 17 27  1  0  0  0
M  END
>  <Name>
tox-50

>  <substance>
Benzo[b ]naptho[2,3-d]thiophene

>  <CASRN>
243-46-9

>  <from_NCI>
1

>  <RBA>
0.000000

>  <method>
GST-hERadef

>  <chemical_class>
Polycyclic aromatic hydrocarbon

>  <set>
0

$$$$
tox-51
  Cerius2 12190218263D 1   1.00000                          
 Structure written by MMmdl.
 34 39  0  0  0  0  0  0  0  0999 V2000
    0.7061    0.5855    0.0017 C   0  0  0  0  0  0
   -0.7061    0.5855   -0.0016 C   0  0  0  0  0  0
    1.4167   -0.6386    0.0034 C   0  0  0  0  0  0
    1.4074    1.8172    0.0032 C   0  0  0  0  0  0
   -1.4167   -0.6386   -0.0032 C   0  0  0  0  0  0
   -1.4074    1.8172   -0.0033 C   0  0  0  0  0  0
    0.7184   -1.8753    0.0018 C   0  0  0  0  0  0
    2.8382   -0.6073    0.0067 C   0  0  0  0  0  0
    0.6967    3.0219    0.0014 C   0  0  0  0  0  0
    2.8048    1.8184    0.0064 C   0  0  0  0  0  0
   -0.7184   -1.8753   -0.0015 C   0  0  0  0  0  0
   -2.8382   -0.6073   -0.0065 C   0  0  0  0  0  0
   -0.6967    3.0219   -0.0017 C   0  0  0  0  0  0
   -2.8048    1.8184   -0.0065 C   0  0  0  0  0  0
    1.5056   -3.0536    0.0036 C   0  0  0  0  0  0
    3.5123    0.6186    0.0081 C   0  0  0  0  0  0
    3.5632   -1.8012    0.0084 C   0  0  0  0  0  0
   -1.5056   -3.0536   -0.0032 C   0  0  0  0  0  0
   -3.5123    0.6186   -0.0081 C   0  0  0  0  0  0
   -3.5632   -1.8012   -0.0081 C   0  0  0  0  0  0
    2.9006   -3.0196    0.0068 C   0  0  0  0  0  0
   -2.9006   -3.0196   -0.0064 C   0  0  0  0  0  0
    1.2213    3.9770    0.0025 H   0  0  0  0  0  0
    3.3606    2.7556    0.0075 H   0  0  0  0  0  0
   -1.2213    3.9770   -0.0030 H   0  0  0  0  0  0
   -3.3606    2.7556   -0.0078 H   0  0  0  0  0  0
    1.0444   -4.0392    0.0026 H   0  0  0  0  0  0
    4.6015    0.6540    0.0107 H   0  0  0  0  0  0
    4.6526   -1.7936    0.0109 H   0  0  0  0  0  0
   -1.0444   -4.0392   -0.0020 H   0  0  0  0  0  0
   -4.6015    0.6540   -0.0106 H   0  0  0  0  0  0
   -4.6526   -1.7936   -0.0107 H   0  0  0  0  0  0
    3.4673   -3.9492    0.0081 H   0  0  0  0  0  0
   -3.4673   -3.9492   -0.0076 H   0  0  0  0  0  0
  1  2  2  0  0  0
  1  3  1  0  0  0
  1  4  1  0  0  0
  2  5  1  0  0  0
  2  6  1  0  0  0
  3  7  2  0  0  0
  3  8  1  0  0  0
  4  9  2  0  0  0
  4 10  1  0  0  0
  5 11  2  0  0  0
  5 12  1  0  0  0
  6 13  2  0  0  0
  6 14  1  0  0  0
  7 11  1  0  0  0
  7 15  1  0  0  0
  8 16  1  0  0  0
  8 17  2  0  0  0
  9 13  1  0  0  0
  9 23  1  0  0  0
 10 16  2  0  0  0
 10 24  1  0  0  0
 11 18  1  0  0  0
 12 19  1  0  0  0
 12 20  2  0  0  0
 13 25  1  0  0  0
 14 19  2  0  0  0
 14 26  1  0  0  0
 15 21  2  0  0  0
 15 27  1  0  0  0
 16 28  1  0  0  0
 17 21  1  0  0  0
 17 29  1  0  0  0
 18 22  2  0  0  0
 18 30  1  0  0  0
 19 31  1  0  0  0
 20 22  1  0  0  0
 20 32  1  0  0  0
 21 33  1  0  0  0
 22 34  1  0  0  0
M  END
>  <Name>
tox-51

>  <substance>
Benzo[ghi ]perylene

>  <CASRN>
191-24-2

>  <from_NCI>
1

>  <RBA>
0.000000

>  <method>
MCF-7 cells

>  <chemical_class>
Polycyclic aromatic hydrocarbon

>  <set>
0

$$$$
tox-52
  Cerius2 12190218263D 1   1.00000                          
 Structure written by MMmdl.
 30 33  0  0  0  0  0  0  0  0999 V2000
    0.4717   -0.6268   -0.0130 C   0  0  0  0  0  0
   -0.7441   -1.4473    0.0526 C   0  0  0  0  0  0
    0.5752    0.8366   -0.0720 C   0  0  0  0  0  0
    1.7044   -1.3393   -0.0204 C   0  0  0  0  0  0
   -0.6605   -2.8575   -0.1219 C   0  0  0  0  0  0
   -2.0479   -0.9670    0.3482 C   0  0  0  0  0  0
    1.8405    1.4672    0.0945 C   0  0  0  0  0  0
   -0.4944    1.7281   -0.3533 C   0  0  0  0  0  0
    1.7440   -2.7287   -0.1511 C   0  0  0  0  0  0
    2.9292   -0.6808    0.1028 C   0  0  0  0  0  0
    0.5789   -3.4733   -0.2476 C   0  0  0  0  0  0
   -1.8087   -3.6692   -0.1349 C   0  0  0  0  0  0
   -3.1883   -1.7805    0.3494 C   0  0  0  0  0  0
    2.9938    0.6999    0.2059 C   0  0  0  0  0  0
    1.9709    2.8671    0.1135 C   0  0  0  0  0  0
   -0.3585    3.1224   -0.3486 C   0  0  0  0  0  0
   -3.0709   -3.1322    0.0838 C   0  0  0  0  0  0
    0.8737    3.6939   -0.0910 C   0  0  0  0  0  0
   -2.2082    0.0626    0.6543 H   0  0  0  0  0  0
   -1.4693    1.3547   -0.6526 H   0  0  0  0  0  0
    2.6963   -3.2588   -0.1914 H   0  0  0  0  0  0
    3.8642   -1.2416    0.1319 H   0  0  0  0  0  0
    0.6597   -4.5534   -0.3689 H   0  0  0  0  0  0
   -1.7250   -4.7446   -0.2952 H   0  0  0  0  0  0
   -4.1621   -1.3497    0.5764 H   0  0  0  0  0  0
    3.9710    1.1684    0.3209 H   0  0  0  0  0  0
    2.9459    3.3306    0.2674 H   0  0  0  0  0  0
   -1.2199    3.7523   -0.5646 H   0  0  0  0  0  0
   -3.9496   -3.7735    0.0827 H   0  0  0  0  0  0
    0.9908    4.7754   -0.0854 H   0  0  0  0  0  0
  1  2  2  0  0  0
  1  3  1  0  0  0
  1  4  1  0  0  0
  2  5  1  0  0  0
  2  6  1  0  0  0
  3  7  2  0  0  0
  3  8  1  0  0  0
  4  9  2  0  0  0
  4 10  1  0  0  0
  5 11  2  0  0  0
  5 12  1  0  0  0
  6 13  2  0  0  0
  6 19  1  0  0  0
  7 14  1  0  0  0
  7 15  1  0  0  0
  8 16  2  0  0  0
  8 20  1  0  0  0
  9 11  1  0  0  0
  9 21  1  0  0  0
 10 14  2  0  0  0
 10 22  1  0  0  0
 11 23  1  0  0  0
 12 17  2  0  0  0
 12 24  1  0  0  0
 13 17  1  0  0  0
 13 25  1  0  0  0
 14 26  1  0  0  0
 15 18  2  0  0  0
 15 27  1  0  0  0
 16 18  1  0  0  0
 16 28  1  0  0  0
 17 29  1  0  0  0
 18 30  1  0  0  0
M  END
>  <Name>
tox-52

>  <substance>
Benzo[c ]phenanthrene

>  <CASRN>
195-19-7

>  <from_NCI>
1

>  <RBA>
0.000000

>  <method>
GST-hERadef

>  <chemical_class>
Polycyclic aromatic hydrocarbon

>  <set>
0

$$$$
tox-53
  Cerius2 12190218263D 1   1.00000                          
 Structure written by MMmdl.
 32 36  0  0  0  0  0  0  0  0999 V2000
    0.6051   -0.3166   -0.0078 C   0  0  0  0  0  0
    1.8564    0.3509   -0.0152 C   0  0  0  0  0  0
   -0.6219    0.4058   -0.0063 C   0  0  0  0  0  0
    0.5816   -1.7261   -0.0018 C   0  0  0  0  0  0
    1.9132    1.7592   -0.0210 C   0  0  0  0  0  0
    3.0655   -0.3842   -0.0165 C   0  0  0  0  0  0
   -1.8756   -0.2808    0.0015 C   0  0  0  0  0  0
   -0.5247    1.8875   -0.0131 C   0  0  0  0  0  0
   -0.6482   -2.3937    0.0059 C   0  0  0  0  0  0
    1.7859   -2.4437   -0.0035 C   0  0  0  0  0  0
    0.6593    2.5195   -0.0198 C   0  0  0  0  0  0
    3.1446    2.4230   -0.0279 C   0  0  0  0  0  0
    3.0138   -1.7814   -0.0108 C   0  0  0  0  0  0
    4.2921    0.2983   -0.0236 C   0  0  0  0  0  0
   -1.8649   -1.6978    0.0077 C   0  0  0  0  0  0
   -3.1472    0.3497    0.0038 C   0  0  0  0  0  0
    4.3308    1.6927   -0.0292 C   0  0  0  0  0  0
   -3.0716   -2.4187    0.0158 C   0  0  0  0  0  0
   -4.3396   -0.3802    0.0119 C   0  0  0  0  0  0
   -4.3014   -1.7658    0.0180 C   0  0  0  0  0  0
   -1.4298    2.4839   -0.0126 H   0  0  0  0  0  0
   -0.6584   -3.4850    0.0106 H   0  0  0  0  0  0
    1.7809   -3.5337    0.0010 H   0  0  0  0  0  0
    0.7088    3.6050   -0.0247 H   0  0  0  0  0  0
    3.1903    3.5108   -0.0323 H   0  0  0  0  0  0
    3.9299   -2.3712   -0.0118 H   0  0  0  0  0  0
    5.2318   -0.2535   -0.0247 H   0  0  0  0  0  0
   -3.2377    1.4337   -0.0006 H   0  0  0  0  0  0
    5.2886    2.2101   -0.0345 H   0  0  0  0  0  0
   -3.0636   -3.5090    0.0207 H   0  0  0  0  0  0
   -5.2956    0.1405    0.0135 H   0  0  0  0  0  0
   -5.2256   -2.3403    0.0245 H   0  0  0  0  0  0
  1  2  2  0  0  0
  1  3  1  0  0  0
  1  4  1  0  0  0
  2  5  1  0  0  0
  2  6  1  0  0  0
  3  7  2  0  0  0
  3  8  1  0  0  0
  4  9  1  0  0  0
  4 10  2  0  0  0
  5 11  1  0  0  0
  5 12  2  0  0  0
  6 13  2  0  0  0
  6 14  1  0  0  0
  7 15  1  0  0  0
  7 16  1  0  0  0
  8 11  2  0  0  0
  8 21  1  0  0  0
  9 15  2  0  0  0
  9 22  1  0  0  0
 10 13  1  0  0  0
 10 23  1  0  0  0
 11 24  1  0  0  0
 12 17  1  0  0  0
 12 25  1  0  0  0
 13 26  1  0  0  0
 14 17  2  0  0  0
 14 27  1  0  0  0
 15 18  1  0  0  0
 16 19  2  0  0  0
 16 28  1  0  0  0
 17 29  1  0  0  0
 18 20  2  0  0  0
 18 30  1  0  0  0
 19 20  1  0  0  0
 19 31  1  0  0  0
 20 32  1  0  0  0
M  END
>  <Name>
tox-53

>  <substance>
Benzo[a ]pyrene

>  <CASRN>
50-32-8

>  <from_NCI>
1

>  <RBA>
14.000000

>  <method>
MCF-7 cells

>  <chemical_class>
Polycyclic aromatic hydrocarbon

>  <set>
0

$$$$
tox-54
  Cerius2 12190218263D 1   1.00000                          
 Structure written by MMmdl.
 32 36  0  0  0  0  0  0  0  0999 V2000
   -1.1992    0.7073    0.0044 C   0  0  0  0  0  0
   -1.1992   -0.7073   -0.0044 C   0  0  0  0  0  0
    0.0207    1.4282    0.0089 C   0  0  0  0  0  0
   -2.4341    1.4112    0.0088 C   0  0  0  0  0  0
    0.0207   -1.4283   -0.0089 C   0  0  0  0  0  0
   -2.4341   -1.4112   -0.0089 C   0  0  0  0  0  0
    1.2645    0.7120    0.0044 C   0  0  0  0  0  0
   -0.0731    2.8467    0.0178 C   0  0  0  0  0  0
   -3.7024    0.6692    0.0042 C   0  0  0  0  0  0
   -2.4759    2.8065    0.0175 C   0  0  0  0  0  0
    1.2645   -0.7120   -0.0045 C   0  0  0  0  0  0
   -0.0731   -2.8467   -0.0178 C   0  0  0  0  0  0
   -3.7024   -0.6692   -0.0042 C   0  0  0  0  0  0
   -2.4759   -2.8065   -0.0176 C   0  0  0  0  0  0
    2.5242    1.3721    0.0085 C   0  0  0  0  0  0
   -1.2935    3.5242    0.0220 C   0  0  0  0  0  0
    2.5242   -1.3721   -0.0086 C   0  0  0  0  0  0
   -1.2935   -3.5242   -0.0221 C   0  0  0  0  0  0
    3.7397    0.6891    0.0043 C   0  0  0  0  0  0
    3.7397   -0.6891   -0.0043 C   0  0  0  0  0  0
    0.8178    3.4714    0.0217 H   0  0  0  0  0  0
   -4.6365    1.2241    0.0076 H   0  0  0  0  0  0
   -3.4244    3.3404    0.0209 H   0  0  0  0  0  0
    0.8178   -3.4714   -0.0217 H   0  0  0  0  0  0
   -4.6365   -1.2241   -0.0077 H   0  0  0  0  0  0
   -3.4244   -3.3404   -0.0209 H   0  0  0  0  0  0
    2.5920    2.4581    0.0153 H   0  0  0  0  0  0
   -1.3127    4.6125    0.0288 H   0  0  0  0  0  0
    2.5920   -2.4581   -0.0153 H   0  0  0  0  0  0
   -1.3127   -4.6125   -0.0289 H   0  0  0  0  0  0
    4.6776    1.2408    0.0077 H   0  0  0  0  0  0
    4.6776   -1.2408   -0.0077 H   0  0  0  0  0  0
  1  2  2  0  0  0
  1  3  1  0  0  0
  1  4  1  0  0  0
  2  5  1  0  0  0
  2  6  1  0  0  0
  3  7  2  0  0  0
  3  8  1  0  0  0
  4  9  1  0  0  0
  4 10  2  0  0  0
  5 11  2  0  0  0
  5 12  1  0  0  0
  6 13  1  0  0  0
  6 14  2  0  0  0
  7 11  1  0  0  0
  7 15  1  0  0  0
  8 16  2  0  0  0
  8 21  1  0  0  0
  9 13  2  0  0  0
  9 22  1  0  0  0
 10 16  1  0  0  0
 10 23  1  0  0  0
 11 17  1  0  0  0
 12 18  2  0  0  0
 12 24  1  0  0  0
 13 25  1  0  0  0
 14 18  1  0  0  0
 14 26  1  0  0  0
 15 19  2  0  0  0
 15 27  1  0  0  0
 16 28  1  0  0  0
 17 20  2  0  0  0
 17 29  1  0  0  0
 18 30  1  0  0  0
 19 20  1  0  0  0
 19 31  1  0  0  0
 20 32  1  0  0  0
M  END
>  <Name>
tox-54

>  <substance>
Benzo[e ]pyrene

>  <CASRN>
192-97-2

>  <from_NCI>
1

>  <RBA>
57.000000

>  <method>
MCF-7 cells

>  <chemical_class>
Polycyclic aromatic hydrocarbon

>  <set>
0

$$$$
tox-55
  Cerius2 12190218263D 1   1.00000                          
 Structure written by MMmdl.
 16 16  0  0  0  0  0  0  0  0999 V2000
    0.9988    0.0200    0.0861 C   0  0  0  0  0  0
    0.2803   -1.1880    0.0285 C   0  0  0  0  0  0
    0.2778    1.2235    0.1892 C   0  0  0  0  0  0
    2.5289    0.0224    0.0744 C   0  0  0  0  0  0
   -1.1163   -1.1907    0.0697 C   0  0  0  0  0  0
   -1.1188    1.2178    0.2302 C   0  0  0  0  0  0
    2.9281    0.1065   -1.1873 O   0  0  0  0  0  0
   -1.8146    0.0115    0.1707 C   0  0  0  0  0  0
    0.8135   -2.1349   -0.0488 H   0  0  0  0  0  0
    0.8090    2.1734    0.2383 H   0  0  0  0  0  0
    2.8217   -0.8617    0.6644 H   0  0  0  0  0  0
    2.8200    0.8215    0.7761 H   0  0  0  0  0  0
   -1.6591   -2.1333    0.0236 H   0  0  0  0  0  0
   -1.6635    2.1571    0.3095 H   0  0  0  0  0  0
   -2.9028    0.0082    0.2032 H   0  0  0  0  0  0
    3.7776    0.1093   -1.2161 H   0  0  0  0  0  0
  1  2  2  0  0  0
  1  3  1  0  0  0
  1  4  1  0  0  0
  2  5  1  0  0  0
  2  9  1  0  0  0
  3  6  2  0  0  0
  3 10  1  0  0  0
  4  7  1  0  0  0
  4 11  1  0  0  0
  4 12  1  0  0  0
  5  8  2  0  0  0
  5 13  1  0  0  0
  6  8  1  0  0  0
  6 14  1  0  0  0
  7 16  1  0  0  0
  8 15  1  0  0  0
M  END
>  <Name>
tox-55

>  <substance>
Benzyl alcohol

>  <CASRN>
100-51-6

>  <from_NCI>
1

>  <RBA>
0.000000

>  <method>
RUC

>  <chemical_class>
Alcohol

>  <set>
2

$$$$
tox-56
  Cerius2 12190218263D 1   1.00000                          
 Structure written by MMmdl.
 27 28  0  0  0  0  0  0  0  0999 V2000
   -1.5961    0.3421   -0.7957 C   0  0  0  0  0  0
   -0.2333    0.2813   -0.7307 O   0  0  0  0  0  0
   -2.1044    1.2809   -1.6868 C   0  0  0  0  0  0
   -2.4925   -0.4313   -0.0709 C   0  0  0  0  0  0
    0.3306   -0.6495    0.1981 C   0  0  0  0  0  0
   -3.4915    1.4414   -1.8457 C   0  0  0  0  0  0
   -3.8791   -0.2563   -0.2442 C   0  0  0  0  0  0
    1.8341   -0.5180    0.1279 C   0  0  0  0  0  0
   -4.4375    0.6819   -1.1336 C   0  0  0  0  0  0
    2.5967   -1.4179   -0.6302 C   0  0  0  0  0  0
    2.4862    0.5282    0.7974 C   0  0  0  0  0  0
   -5.6915    0.8298   -1.2808 O   0  0  0  0  0  0
    3.9844   -1.2821   -0.7049 C   0  0  0  0  0  0
    3.8736    0.6624    0.7207 C   0  0  0  0  0  0
    4.6221   -0.2436   -0.0286 C   0  0  0  0  0  0
   -1.4283    1.9033   -2.2708 H   0  0  0  0  0  0
   -2.1657   -1.1843    0.6410 H   0  0  0  0  0  0
    0.0361   -1.6744   -0.0607 H   0  0  0  0  0  0
   -0.0003   -0.4284    1.2207 H   0  0  0  0  0  0
   -3.8305    2.1966   -2.5606 H   0  0  0  0  0  0
   -4.5408   -0.8920    0.3522 H   0  0  0  0  0  0
    2.1136   -2.2318   -1.1698 H   0  0  0  0  0  0
    1.9127    1.2472    1.3818 H   0  0  0  0  0  0
    4.5685   -1.9870   -1.2944 H   0  0  0  0  0  0
    4.3708    1.4772    1.2445 H   0  0  0  0  0  0
    5.7041   -0.1384   -0.0884 H   0  0  0  0  0  0
   -6.1025    0.2878   -0.7711 H   0  0  0  0  0  0
  1  2  1  0  0  0
  1  3  2  0  0  0
  1  4  1  0  0  0
  2  5  1  0  0  0
  3  6  1  0  0  0
  3 16  1  0  0  0
  4  7  2  0  0  0
  4 17  1  0  0  0
  5  8  1  0  0  0
  5 18  1  0  0  0
  5 19  1  0  0  0
  6  9  2  0  0  0
  6 20  1  0  0  0
  7  9  1  0  0  0
  7 21  1  0  0  0
  8 10  2  0  0  0
  8 11  1  0  0  0
  9 12  1  0  0  0
 10 13  1  0  0  0
 10 22  1  0  0  0
 11 14  2  0  0  0
 11 23  1  0  0  0
 12 27  1  0  0  0
 13 15  2  0  0  0
 13 24  1  0  0  0
 14 15  1  0  0  0
 14 25  1  0  0  0
 15 26  1  0  0  0
M  END
>  <Name>
tox-56

>  <substance>
4-Benzyloxyphenol

>  <CASRN>
103-16-2

>  <from_NCI>
1

>  <RBA>
0.000400

>  <method>
RUC

>  <chemical_class>
Phenol

>  <set>
1

$$$$
tox-57
  Cerius2 12190218263D 1   1.00000                          
 Structure written by MMmdl.
 29 30  0  0  0  0  0  0  0  0999 V2000
   -1.9730   -0.9924    0.4311 C   0  0  0  0  0  0
   -1.9974    0.4922    0.3179 C   0  0  0  0  0  0
   -3.1840   -1.6795    0.5081 C   0  0  0  0  0  0
   -0.7887   -1.7283    0.4627 C   0  0  0  0  0  0
   -0.7378    0.9871    0.2686 O   0  0  0  0  0  0
   -3.0237    1.1570    0.2768 O   0  0  0  0  0  0
   -3.1995   -3.0809    0.6165 C   0  0  0  0  0  0
   -0.8295   -3.1298    0.5720 C   0  0  0  0  0  0
   -0.6656    2.4131    0.1540 C   0  0  0  0  0  0
   -2.0292   -3.8634    0.6534 C   0  0  0  0  0  0
    0.7921    2.7939    0.1057 C   0  0  0  0  0  0
   -2.0538   -5.1305    0.7520 O   0  0  0  0  0  0
    1.4442    3.2748    1.2495 C   0  0  0  0  0  0
    1.5252    2.6391   -1.0801 C   0  0  0  0  0  0
    2.7990    3.6090    1.2033 C   0  0  0  0  0  0
    2.8799    2.9731   -1.1238 C   0  0  0  0  0  0
    3.5157    3.4597    0.0170 C   0  0  0  0  0  0
   -4.1307   -1.1426    0.4861 H   0  0  0  0  0  0
    0.1822   -1.2404    0.4044 H   0  0  0  0  0  0
   -4.1771   -3.5686    0.6736 H   0  0  0  0  0  0
    0.1285   -3.6580    0.5931 H   0  0  0  0  0  0
   -1.1570    2.8835    1.0142 H   0  0  0  0  0  0
   -1.1661    2.7466   -0.7633 H   0  0  0  0  0  0
    0.9008    3.3920    2.1865 H   0  0  0  0  0  0
    1.0428    2.2533   -1.9777 H   0  0  0  0  0  0
    3.2972    3.9838    2.0959 H   0  0  0  0  0  0
    3.4406    2.8509   -2.0491 H   0  0  0  0  0  0
    4.5722    3.7200   -0.0175 H   0  0  0  0  0  0
   -1.2582   -5.4296    0.7591 H   0  0  0  0  0  0
  1  2  1  0  0  0
  1  3  2  0  0  0
  1  4  1  0  0  0
  2  5  1  0  0  0
  2  6  2  0  0  0
  3  7  1  0  0  0
  3 18  1  0  0  0
  4  8  2  0  0  0
  4 19  1  0  0  0
  5  9  1  0  0  0
  7 10  2  0  0  0
  7 20  1  0  0  0
  8 10  1  0  0  0
  8 21  1  0  0  0
  9 11  1  0  0  0
  9 22  1  0  0  0
  9 23  1  0  0  0
 10 12  1  0  0  0
 11 13  2  0  0  0
 11 14  1  0  0  0
 12 29  1  0  0  0
 13 15  1  0  0  0
 13 24  1  0  0  0
 14 16  2  0  0  0
 14 25  1  0  0  0
 15 17  2  0  0  0
 15 26  1  0  0  0
 16 17  1  0  0  0
 16 27  1  0  0  0
 17 28  1  0  0  0
M  END
>  <Name>
tox-57

>  <substance>
Benzylparaben

>  <CASRN>
94-18-8

>  <from_NCI>
1

>  <RBA>
0.003000

>  <method>
RUC

>  <chemical_class>
Paraben

>  <set>
0

$$$$
tox-58
  Cerius2 12190218263D 1   1.00000                          
 Structure written by MMmdl.
 33 35  0  0  0  0  0  0  0  0999 V2000
   -5.2761    0.1515    1.9172 C   0  0  0  0  0  0
   -5.3710   -1.2570    1.8124 C   0  0  0  0  0  0
   -4.1970   -1.8795    1.3814 C   0  0  0  0  0  0
   -4.1337    0.9623    1.6359 C   0  0  0  0  0  0
   -2.9781    0.2334    1.2048 C   0  0  0  0  0  0
   -3.0287   -1.1645    1.0816 C   0  0  0  0  0  0
   -1.9756   -1.9441    0.6691 O   0  0  0  0  0  0
   -0.8130   -1.3224    0.3113 C   0  0  0  0  0  0
   -0.5677   -0.0086    0.3677 C   0  0  0  0  0  0
   -1.6569    0.8860    0.8647 C   0  0  0  0  0  0
   -1.4385    2.0905    0.9888 O   0  0  0  0  0  0
   -4.2218    2.2298    1.7806 O   0  0  0  0  0  0
   -6.4336   -1.8999    2.0857 O   0  0  0  0  0  0
    0.7411    0.5078   -0.0687 C   0  0  0  0  0  0
    1.9216    0.1106    0.5746 C   0  0  0  0  0  0
    3.1673    0.5921    0.1507 C   0  0  0  0  0  0
    3.2488    1.4770   -0.9238 C   0  0  0  0  0  0
    2.0751    1.8752   -1.5680 C   0  0  0  0  0  0
    0.8305    1.3961   -1.1461 C   0  0  0  0  0  0
    4.3962    2.0179   -1.4345 O   0  0  0  0  0  0
    5.6199    1.6363   -0.8073 C   0  0  0  0  0  0
   -6.1828    0.6783    2.2521 H   0  0  0  0  0  0
   -4.1739   -2.9665    1.2678 H   0  0  0  0  0  0
   -0.0963   -2.0575   -0.0379 H   0  0  0  0  0  0
    1.8865   -0.5773    1.4189 H   0  0  0  0  0  0
    4.0501    0.2525    0.6858 H   0  0  0  0  0  0
    2.1223    2.5655   -2.4087 H   0  0  0  0  0  0
   -0.0661    1.7237   -1.6705 H   0  0  0  0  0  0
    6.4342    2.1488   -1.3283 H   0  0  0  0  0  0
    5.7898    0.5586   -0.9000 H   0  0  0  0  0  0
    5.6408    1.9543    0.2402 H   0  0  0  0  0  0
   -3.4780    2.5900    1.5819 H   0  0  0  0  0  0
   -6.3012   -2.7307    1.9645 H   0  0  0  0  0  0
  1  2  2  0  0  0
  1  4  1  0  0  0
  1 22  1  0  0  0
  2  3  1  0  0  0
  2 13  1  0  0  0
  3  6  2  0  0  0
  3 23  1  0  0  0
  4  5  2  0  0  0
  4 12  1  0  0  0
  5  6  1  0  0  0
  5 10  1  0  0  0
  6  7  1  0  0  0
  7  8  1  0  0  0
  8  9  2  0  0  0
  8 24  1  0  0  0
  9 10  1  0  0  0
  9 14  1  0  0  0
 10 11  2  0  0  0
 12 32  1  0  0  0
 13 33  1  0  0  0
 14 15  2  0  0  0
 14 19  1  0  0  0
 15 16  1  0  0  0
 15 25  1  0  0  0
 16 17  2  0  0  0
 16 26  1  0  0  0
 17 18  1  0  0  0
 17 20  1  0  0  0
 18 19  2  0  0  0
 18 27  1  0  0  0
 19 28  1  0  0  0
 20 21  1  0  0  0
 21 29  1  0  0  0
 21 30  1  0  0  0
 21 31  1  0  0  0
M  END
>  <Name>
tox-58

>  <substance>
Biochanin A

>  <CASRN>
491-80-5

>  <from_NCI>
1

>  <RBA>
0.002000

>  <method>
hERa,RUC

>  <chemical_class>
Isoflavone

>  <set>
0

$$$$
tox-59
  Cerius2 12190218263D 1   1.00000                          
 Structure written by MMmdl.
 57 59  0  0  0  0  0  0  0  0999 V2000
   -1.0875    0.3662    0.2239 C   0  0  0  0  0  0
    0.0519    0.5502    0.9460 C   0  0  0  0  0  0
    0.5201    1.8828    1.5197 C   0  0  0  0  0  0
    1.6463    2.5134    0.6936 C   0  0  0  0  0  0
    2.0295    3.8836    1.2323 C   0  0  0  0  0  0
   -1.4867   -0.9863   -0.2463 C   0  0  0  0  0  0
   -1.9513    1.5324   -0.0870 C   0  0  0  0  0  0
    0.9416   -0.5827    1.3001 C   0  0  0  0  0  0
   -1.2260   -1.3789   -1.5690 C   0  0  0  0  0  0
   -1.6033   -2.6470   -2.0230 C   0  0  0  0  0  0
   -2.2596   -3.5271   -1.1656 C   0  0  0  0  0  0
   -2.5401   -3.1179    0.1354 C   0  0  0  0  0  0
   -2.1461   -1.8705    0.6151 C   0  0  0  0  0  0
   -1.6755    2.3498   -1.1910 C   0  0  0  0  0  0
   -2.4908    3.4471   -1.4745 C   0  0  0  0  0  0
   -3.5866    3.7320   -0.6608 C   0  0  0  0  0  0
   -3.8713    2.9199    0.4365 C   0  0  0  0  0  0
   -3.0583    1.8215    0.7226 C   0  0  0  0  0  0
    1.8369   -1.1082    0.3606 C   0  0  0  0  0  0
    2.6600   -2.1746    0.7205 C   0  0  0  0  0  0
    2.6344   -2.7112    2.0068 C   0  0  0  0  0  0
    1.7403   -2.1924    2.9409 C   0  0  0  0  0  0
    0.8969   -1.1342    2.5900 C   0  0  0  0  0  0
   -3.1850   -4.0162    1.0038 O   0  0  0  0  0  0
   -4.5671   -3.9884    1.1738 C   0  0  0  0  0  0
   -5.1164   -4.7713    1.9515 O   0  0  0  0  0  0
   -5.3335   -2.9715    0.3759 C   0  0  0  0  0  0
    3.5893   -2.6403   -0.2133 O   0  0  0  0  0  0
    4.3391   -4.2447   -1.7608 C   0  0  0  0  0  0
    3.2570   -3.8593   -0.7961 C   0  0  0  0  0  0
    2.2522   -4.5293   -0.5781 O   0  0  0  0  0  0
    0.8607    1.7440    2.5547 H   0  0  0  0  0  0
   -0.3100    2.5941    1.5962 H   0  0  0  0  0  0
    1.3377    2.6162   -0.3532 H   0  0  0  0  0  0
    2.5337    1.8701    0.7053 H   0  0  0  0  0  0
    2.8299    4.3195    0.6263 H   0  0  0  0  0  0
    2.3858    3.8131    2.2650 H   0  0  0  0  0  0
    1.1752    4.5675    1.2089 H   0  0  0  0  0  0
   -0.7178   -0.7007   -2.2528 H   0  0  0  0  0  0
   -1.3829   -2.9450   -3.0463 H   0  0  0  0  0  0
   -2.5497   -4.5151   -1.5140 H   0  0  0  0  0  0
   -2.3544   -1.5889    1.6440 H   0  0  0  0  0  0
   -0.8237    2.1375   -1.8345 H   0  0  0  0  0  0
   -2.2701    4.0806   -2.3318 H   0  0  0  0  0  0
   -4.2203    4.5890   -0.8822 H   0  0  0  0  0  0
   -4.7267    3.1427    1.0716 H   0  0  0  0  0  0
   -3.2893    1.1972    1.5840 H   0  0  0  0  0  0
    1.8969   -0.6883   -0.6406 H   0  0  0  0  0  0
    3.3017   -3.5231    2.2845 H   0  0  0  0  0  0
    1.7007   -2.6068    3.9464 H   0  0  0  0  0  0
    0.2042   -0.7399    3.3319 H   0  0  0  0  0  0
   -5.1737   -3.1160   -0.6947 H   0  0  0  0  0  0
   -5.0696   -1.9589    0.6889 H   0  0  0  0  0  0
   -6.4029   -3.1100    0.5670 H   0  0  0  0  0  0
    4.0784   -5.1946   -2.2360 H   0  0  0  0  0  0
    5.2844   -4.3700   -1.2272 H   0  0  0  0  0  0
    4.4323   -3.4822   -2.5379 H   0  0  0  0  0  0
  1  2  2  0  0  0
  1  6  1  0  0  0
  1  7  1  0  0  0
  2  3  1  0  0  0
  2  8  1  0  0  0
  3  4  1  0  0  0
  3 32  1  0  0  0
  3 33  1  0  0  0
  4  5  1  0  0  0
  4 34  1  0  0  0
  4 35  1  0  0  0
  5 36  1  0  0  0
  5 37  1  0  0  0
  5 38  1  0  0  0
  6  9  2  0  0  0
  6 13  1  0  0  0
  7 14  2  0  0  0
  7 18  1  0  0  0
  8 19  2  0  0  0
  8 23  1  0  0  0
  9 10  1  0  0  0
  9 39  1  0  0  0
 10 11  2  0  0  0
 10 40  1  0  0  0
 11 12  1  0  0  0
 11 41  1  0  0  0
 12 13  2  0  0  0
 12 24  1  0  0  0
 13 42  1  0  0  0
 14 15  1  0  0  0
 14 43  1  0  0  0
 15 16  2  0  0  0
 15 44  1  0  0  0
 16 17  1  0  0  0
 16 45  1  0  0  0
 17 18  2  0  0  0
 17 46  1  0  0  0
 18 47  1  0  0  0
 19 20  1  0  0  0
 19 48  1  0  0  0
 20 21  2  0  0  0
 20 28  1  0  0  0
 21 22  1  0  0  0
 21 49  1  0  0  0
 22 23  2  0  0  0
 22 50  1  0  0  0
 23 51  1  0  0  0
 24 25  1  0  0  0
 25 26  2  0  0  0
 25 27  1  0  0  0
 27 52  1  0  0  0
 27 53  1  0  0  0
 27 54  1  0  0  0
 28 30  1  0  0  0
 29 30  1  0  0  0
 29 55  1  0  0  0
 29 56  1  0  0  0
 29 57  1  0  0  0
 30 31  2  0  0  0
M  END
>  <Name>
tox-59

>  <substance>
Bis(m -acetoxy)-1,1,2-triphenylbut-1- ene

>  <CASRN>
100808-56-8

>  <from_NCI>
0

>  <RBA>
12.000000

>  <method>
RUC

>  <chemical_class>
Stilbene

>  <set>
2

$$$$
tox-60
  Cerius2 12190218263D 1   1.00000                          
 Structure written by MMmdl.
 57 59  0  0  0  0  0  0  0  0999 V2000
   -0.7593    1.2449   -0.0125 C   0  0  0  0  0  0
    0.5462    1.2770    0.3763 C   0  0  0  0  0  0
    1.3304    2.5423    0.7048 C   0  0  0  0  0  0
    2.2744    2.9560   -0.4294 C   0  0  0  0  0  0
    2.9817    4.2648   -0.1128 C   0  0  0  0  0  0
   -1.4489   -0.0484   -0.2668 C   0  0  0  0  0  0
   -1.5010    2.5188   -0.1887 C   0  0  0  0  0  0
    1.3365    0.0353    0.5702 C   0  0  0  0  0  0
   -1.6466   -0.4885   -1.5852 C   0  0  0  0  0  0
   -2.2892   -1.7015   -1.8355 C   0  0  0  0  0  0
   -2.7501   -2.4599   -0.7614 C   0  0  0  0  0  0
   -2.5559   -2.0481    0.5552 C   0  0  0  0  0  0
   -1.9126   -0.8339    0.8004 C   0  0  0  0  0  0
   -1.3855    3.2520   -1.3772 C   0  0  0  0  0  0
   -2.0785    4.4539   -1.5340 C   0  0  0  0  0  0
   -2.8958    4.9271   -0.5084 C   0  0  0  0  0  0
   -3.0231    4.1998    0.6747 C   0  0  0  0  0  0
   -2.3300    2.9977    0.8347 C   0  0  0  0  0  0
    1.8363   -0.6721   -0.5344 C   0  0  0  0  0  0
    2.5734   -1.8431   -0.3496 C   0  0  0  0  0  0
    2.8195   -2.2933    0.9458 C   0  0  0  0  0  0
    2.3197   -1.6165    2.0562 C   0  0  0  0  0  0
    1.5837   -0.4460    1.8655 C   0  0  0  0  0  0
   -3.3458   -3.6983   -1.0037 O   0  0  0  0  0  0
   -4.7184   -3.6228   -1.2184 C   0  0  0  0  0  0
   -5.4111   -2.6094   -1.2008 O   0  0  0  0  0  0
   -5.2436   -5.0029   -1.4804 C   0  0  0  0  0  0
    3.5098   -3.4918    1.1312 O   0  0  0  0  0  0
    5.5139   -4.6687    1.4972 C   0  0  0  0  0  0
    4.8821   -3.3241    1.2892 C   0  0  0  0  0  0
    5.5003   -2.2635    1.2685 O   0  0  0  0  0  0
    1.9101    2.3938    1.6256 H   0  0  0  0  0  0
    0.6581    3.3761    0.9346 H   0  0  0  0  0  0
    1.7168    3.0704   -1.3662 H   0  0  0  0  0  0
    3.0301    2.1804   -0.5983 H   0  0  0  0  0  0
    3.6525    4.5400   -0.9329 H   0  0  0  0  0  0
    3.5786    4.1770    0.8006 H   0  0  0  0  0  0
    2.2613    5.0776    0.0232 H   0  0  0  0  0  0
   -1.2897    0.1069   -2.4237 H   0  0  0  0  0  0
   -2.4238   -2.0455   -2.8576 H   0  0  0  0  0  0
   -2.8977   -2.6606    1.3854 H   0  0  0  0  0  0
   -1.7659   -0.5066    1.8281 H   0  0  0  0  0  0
   -0.7529    2.8922   -2.1865 H   0  0  0  0  0  0
   -1.9800    5.0213   -2.4576 H   0  0  0  0  0  0
   -3.4364    5.8639   -0.6317 H   0  0  0  0  0  0
   -3.6619    4.5694    1.4749 H   0  0  0  0  0  0
   -2.4363    2.4409    1.7643 H   0  0  0  0  0  0
    1.6492   -0.3148   -1.5456 H   0  0  0  0  0  0
    2.9469   -2.3927   -1.2097 H   0  0  0  0  0  0
    2.4950   -1.9919    3.0612 H   0  0  0  0  0  0
    1.1933    0.0835    2.7331 H   0  0  0  0  0  0
   -5.0665   -5.6386   -0.6093 H   0  0  0  0  0  0
   -4.7622   -5.4205   -2.3684 H   0  0  0  0  0  0
   -6.3210   -4.9508   -1.6608 H   0  0  0  0  0  0
    5.1199   -5.1261    2.4082 H   0  0  0  0  0  0
    6.5953   -4.5468    1.6079 H   0  0  0  0  0  0
    5.3233   -5.3072    0.6308 H   0  0  0  0  0  0
  1  2  2  0  0  0
  1  6  1  0  0  0
  1  7  1  0  0  0
  2  3  1  0  0  0
  2  8  1  0  0  0
  3  4  1  0  0  0
  3 32  1  0  0  0
  3 33  1  0  0  0
  4  5  1  0  0  0
  4 34  1  0  0  0
  4 35  1  0  0  0
  5 36  1  0  0  0
  5 37  1  0  0  0
  5 38  1  0  0  0
  6  9  2  0  0  0
  6 13  1  0  0  0
  7 14  2  0  0  0
  7 18  1  0  0  0
  8 19  2  0  0  0
  8 23  1  0  0  0
  9 10  1  0  0  0
  9 39  1  0  0  0
 10 11  2  0  0  0
 10 40  1  0  0  0
 11 12  1  0  0  0
 11 24  1  0  0  0
 12 13  2  0  0  0
 12 41  1  0  0  0
 13 42  1  0  0  0
 14 15  1  0  0  0
 14 43  1  0  0  0
 15 16  2  0  0  0
 15 44  1  0  0  0
 16 17  1  0  0  0
 16 45  1  0  0  0
 17 18  2  0  0  0
 17 46  1  0  0  0
 18 47  1  0  0  0
 19 20  1  0  0  0
 19 48  1  0  0  0
 20 21  2  0  0  0
 20 49  1  0  0  0
 21 22  1  0  0  0
 21 28  1  0  0  0
 22 23  2  0  0  0
 22 50  1  0  0  0
 23 51  1  0  0  0
 24 25  1  0  0  0
 25 26  2  0  0  0
 25 27  1  0  0  0
 27 52  1  0  0  0
 27 53  1  0  0  0
 27 54  1  0  0  0
 28 30  1  0  0  0
 29 30  1  0  0  0
 29 55  1  0  0  0
 29 56  1  0  0  0
 29 57  1  0  0  0
 30 31  2  0  0  0
M  END
>  <Name>
tox-60

>  <substance>
Bis(p -acetoxy)-1,1,2-triphenylbut-1- ene

>  <CASRN>
100808-54-6

>  <from_NCI>
0

>  <RBA>
73.000000

>  <method>
RUC

>  <chemical_class>
Triphenylethylene

>  <set>
1

$$$$
tox-61
  Cerius2 12190218263D 1   1.00000                          
 Structure written by MMmdl.
 42 45  0  0  0  0  0  0  0  0999 V2000
   -5.4024   -4.1388   16.6668 C   0  0  0  0  0  0
   -6.7889   -4.1098   16.7443 C   0  0  0  0  0  0
   -7.5595   -4.3755   15.6100 C   0  0  0  0  0  0
   -4.7866   -4.4433   15.4562 C   0  0  0  0  0  0
   -5.5505   -4.7213   14.3087 C   0  0  0  0  0  0
   -4.8097   -5.0229   13.0265 C   0  0  0  0  0  0
   -5.6902   -5.5972   11.9206 C   0  0  0  0  0  0
   -6.9925   -4.8003   11.8264 C   0  0  0  0  0  0
   -7.8618   -5.2319   10.6452 C   0  0  0  0  0  0
   -7.2790   -5.1980    9.2375 C   0  0  0  0  0  0
   -8.5192   -5.2043    8.3273 C   0  0  0  0  0  0
   -9.7366   -4.9668    9.2406 C   0  0  0  0  0  0
   -9.1389   -4.3788   10.5271 C   0  0  0  0  0  0
   -8.8975   -2.8651   10.3149 C   0  0  0  0  0  0
   -9.9761   -4.5966   11.7916 C   0  0  0  0  0  0
   -9.1768   -4.2759   13.0695 C   0  0  0  0  0  0
   -7.8048   -4.9987   13.1421 C   0  0  0  0  0  0
   -6.9600   -4.6628   14.3707 C   0  0  0  0  0  0
   -4.8003   -3.9297   17.5489 H   0  0  0  0  0  0
   -7.2768   -3.8836   17.6910 H   0  0  0  0  0  0
   -8.6416   -4.3593   15.7221 H   0  0  0  0  0  0
   -3.6979   -4.4656   15.4076 H   0  0  0  0  0  0
   -3.9939   -5.7280   13.2267 H   0  0  0  0  0  0
   -4.3571   -4.0875   12.6732 H   0  0  0  0  0  0
   -5.9091   -6.6528   12.1276 H   0  0  0  0  0  0
   -5.1357   -5.5660   10.9762 H   0  0  0  0  0  0
   -6.7247   -3.7413   11.7158 H   0  0  0  0  0  0
   -8.1552   -6.2793   10.8275 H   0  0  0  0  0  0
   -6.6362   -6.0611    9.0371 H   0  0  0  0  0  0
   -6.6821   -4.2948    9.0692 H   0  0  0  0  0  0
   -8.6194   -6.1577    7.7977 H   0  0  0  0  0  0
   -8.4358   -4.4162    7.5709 H   0  0  0  0  0  0
  -10.2285   -5.9266    9.4422 H   0  0  0  0  0  0
  -10.4774   -4.3135    8.7682 H   0  0  0  0  0  0
   -9.8540   -2.3433   10.1911 H   0  0  0  0  0  0
   -8.3030   -2.6552    9.4203 H   0  0  0  0  0  0
   -8.3831   -2.3955   11.1574 H   0  0  0  0  0  0
  -10.3083   -5.6417   11.8450 H   0  0  0  0  0  0
  -10.8863   -3.9857   11.7637 H   0  0  0  0  0  0
   -9.8033   -4.5671   13.9205 H   0  0  0  0  0  0
   -9.0298   -3.1926   13.1563 H   0  0  0  0  0  0
   -8.0271   -6.0730   13.2365 H   0  0  0  0  0  0
  1  2  2  0  0  0
  1  4  1  0  0  0
  1 19  1  0  0  0
  2  3  1  0  0  0
  2 20  1  0  0  0
  3 18  2  0  0  0
  3 21  1  0  0  0
  4  5  2  0  0  0
  4 22  1  0  0  0
  5  6  1  0  0  0
  5 18  1  0  0  0
  6  7  1  0  0  0
  6 23  1  0  0  0
  6 24  1  0  0  0
  7  8  1  0  0  0
  7 25  1  0  0  0
  7 26  1  0  0  0
  8  9  1  0  0  0
  8 17  1  0  0  0
  8 27  1  0  0  0
  9 10  1  0  0  0
  9 13  1  0  0  0
  9 28  1  0  0  0
 10 11  1  0  0  0
 10 29  1  0  0  0
 10 30  1  0  0  0
 11 12  1  0  0  0
 11 31  1  0  0  0
 11 32  1  0  0  0
 12 13  1  0  0  0
 12 33  1  0  0  0
 12 34  1  0  0  0
 13 14  1  0  0  0
 13 15  1  0  0  0
 14 35  1  0  0  0
 14 36  1  0  0  0
 14 37  1  0  0  0
 15 16  1  0  0  0
 15 38  1  0  0  0
 15 39  1  0  0  0
 16 17  1  0  0  0
 16 40  1  0  0  0
 16 41  1  0  0  0
 17 18  1  0  0  0
 17 42  1  0  0  0
M  END
>  <Name>
tox-61

>  <substance>
Bisdesoxyestradiol

>  <CASRN>
1217-09-0

>  <from_NCI>
1

>  <RBA>
0.100000

>  <method>
RUC

>  <chemical_class>
Steroid, nonphenolic

>  <set>
2

$$$$
tox-62
  Cerius2 12190218263D 1   1.00000                          
 Structure written by MMmdl.
 30 31  0  0  0  0  0  0  0  0999 V2000
   -0.7548    0.9626   -1.6500 C   0  0  0  0  0  0
   -1.5600    0.3049   -2.7816 C   0  0  0  0  0  0
    0.6969    0.4973   -1.5534 C   0  0  0  0  0  0
    1.6733    1.4002   -1.0934 C   0  0  0  0  0  0
    3.0113    1.0152   -0.9797 C   0  0  0  0  0  0
    3.3847   -0.2783   -1.3189 C   0  0  0  0  0  0
    2.4404   -1.1942   -1.7668 C   0  0  0  0  0  0
    1.1008   -0.8076   -1.8803 C   0  0  0  0  0  0
    4.6991   -0.6200   -1.1962 O   0  0  0  0  0  0
   -1.4869    0.8572   -0.3150 C   0  0  0  0  0  0
   -1.8026   -0.3865    0.2570 C   0  0  0  0  0  0
   -2.4720   -0.4592    1.4812 C   0  0  0  0  0  0
   -2.8277    0.7097    2.1425 C   0  0  0  0  0  0
   -2.5236    1.9529    1.6005 C   0  0  0  0  0  0
   -1.8538    2.0251    0.3758 C   0  0  0  0  0  0
   -3.4803    0.5989    3.3349 O   0  0  0  0  0  0
   -0.7137    2.0265   -1.9276 H   0  0  0  0  0  0
   -2.5476    0.7723   -2.8716 H   0  0  0  0  0  0
   -1.7256   -0.7653   -2.6188 H   0  0  0  0  0  0
   -1.0467    0.4207   -3.7428 H   0  0  0  0  0  0
    1.3939    2.4172   -0.8186 H   0  0  0  0  0  0
    3.7522    1.7280   -0.6250 H   0  0  0  0  0  0
    2.7234   -2.2110   -2.0292 H   0  0  0  0  0  0
    0.3800   -1.5474   -2.2234 H   0  0  0  0  0  0
    4.8017   -1.5560   -1.4722 H   0  0  0  0  0  0
   -1.5265   -1.3127   -0.2447 H   0  0  0  0  0  0
   -2.7101   -1.4293    1.9113 H   0  0  0  0  0  0
   -2.7967    2.8727    2.1124 H   0  0  0  0  0  0
   -1.6199    3.0061   -0.0369 H   0  0  0  0  0  0
   -3.6603    1.5021    3.6733 H   0  0  0  0  0  0
  1  2  1  0  0  0
  1  3  1  0  0  0
  1 10  1  0  0  0
  1 17  1  0  0  0
  2 18  1  0  0  0
  2 19  1  0  0  0
  2 20  1  0  0  0
  3  4  2  0  0  0
  3  8  1  0  0  0
  4  5  1  0  0  0
  4 21  1  0  0  0
  5  6  2  0  0  0
  5 22  1  0  0  0
  6  7  1  0  0  0
  6  9  1  0  0  0
  7  8  2  0  0  0
  7 23  1  0  0  0
  8 24  1  0  0  0
  9 25  1  0  0  0
 10 11  2  0  0  0
 10 15  1  0  0  0
 11 12  1  0  0  0
 11 26  1  0  0  0
 12 13  2  0  0  0
 12 27  1  0  0  0
 13 14  1  0  0  0
 13 16  1  0  0  0
 14 15  2  0  0  0
 14 28  1  0  0  0
 15 29  1  0  0  0
 16 30  1  0  0  0
M  END
>  <Name>
tox-62

>  <substance>
1,1-Bis-(4-hydroxyphenyl) ethane

>  <CASRN>
2081-08-5

>  <from_NCI>
0

>  <RBA>
0.000900

>  <method>
RUC

>  <chemical_class>
Diphenolalkane

>  <set>
1

$$$$
tox-63
  Cerius2 12190218263D 1   1.00000                          
 Structure written by MMmdl.
 45 46  0  0  0  0  0  0  0  0999 V2000
    3.5453    1.9456   -0.7365 C   0  0  0  0  0  0
    2.1191    1.4286   -0.8698 C   0  0  0  0  0  0
    1.2717    1.8215    0.3511 C   0  0  0  0  0  0
   -0.1700    1.1804    0.4647 C   0  0  0  0  0  0
   -0.7296    1.7146    1.8445 C   0  0  0  0  0  0
   -2.1690    1.3236    2.2160 C   0  0  0  0  0  0
   -2.6406    2.0785    3.4516 C   0  0  0  0  0  0
   -0.1445   -0.3737    0.5939 C   0  0  0  0  0  0
    0.9659   -1.0625    1.1192 C   0  0  0  0  0  0
    0.9608   -2.4550    1.2622 C   0  0  0  0  0  0
   -0.1625   -3.1835    0.9002 C   0  0  0  0  0  0
   -1.2870   -2.5407    0.4052 C   0  0  0  0  0  0
   -1.2781   -1.1487    0.2635 C   0  0  0  0  0  0
   -0.1295   -4.5374    1.0552 O   0  0  0  0  0  0
   -0.9644    1.7098   -0.7686 C   0  0  0  0  0  0
   -0.9268    1.0275   -2.0042 C   0  0  0  0  0  0
   -1.6044    1.5075   -3.1295 C   0  0  0  0  0  0
   -2.3193    2.6920   -3.0465 C   0  0  0  0  0  0
   -2.3584    3.4074   -1.8583 C   0  0  0  0  0  0
   -1.6785    2.9236   -0.7333 C   0  0  0  0  0  0
   -2.9673    3.1330   -4.1617 O   0  0  0  0  0  0
    4.1294    1.6774   -1.6225 H   0  0  0  0  0  0
    4.0394    1.5122    0.1390 H   0  0  0  0  0  0
    3.5599    3.0356   -0.6367 H   0  0  0  0  0  0
    2.1507    0.3429   -0.9990 H   0  0  0  0  0  0
    1.6905    1.8550   -1.7823 H   0  0  0  0  0  0
    1.1724    2.9172    0.3392 H   0  0  0  0  0  0
    1.8443    1.6032    1.2620 H   0  0  0  0  0  0
   -0.6426    2.8085    1.8780 H   0  0  0  0  0  0
   -0.0759    1.3574    2.6542 H   0  0  0  0  0  0
   -2.2272    0.2524    2.4334 H   0  0  0  0  0  0
   -2.8613    1.5292    1.3944 H   0  0  0  0  0  0
   -3.6579    1.7733    3.7162 H   0  0  0  0  0  0
   -2.6464    3.1585    3.2729 H   0  0  0  0  0  0
   -1.9906    1.8740    4.3083 H   0  0  0  0  0  0
    1.8622   -0.5349    1.4371 H   0  0  0  0  0  0
    1.8371   -2.9594    1.6633 H   0  0  0  0  0  0
   -2.1803   -3.0968    0.1312 H   0  0  0  0  0  0
   -2.1858   -0.6705   -0.1044 H   0  0  0  0  0  0
   -0.9905   -4.9025    0.7587 H   0  0  0  0  0  0
   -0.3534    0.1069   -2.1109 H   0  0  0  0  0  0
   -1.5608    0.9536   -4.0643 H   0  0  0  0  0  0
   -2.9042    4.3453   -1.7844 H   0  0  0  0  0  0
   -1.7200    3.5297    0.1688 H   0  0  0  0  0  0
   -3.4202    3.9752   -3.9423 H   0  0  0  0  0  0
  1  2  1  0  0  0
  1 22  1  0  0  0
  1 23  1  0  0  0
  1 24  1  0  0  0
  2  3  1  0  0  0
  2 25  1  0  0  0
  2 26  1  0  0  0
  3  4  1  0  0  0
  3 27  1  0  0  0
  3 28  1  0  0  0
  4  5  1  0  0  0
  4  8  1  0  0  0
  4 15  1  0  0  0
  5  6  1  0  0  0
  5 29  1  0  0  0
  5 30  1  0  0  0
  6  7  1  0  0  0
  6 31  1  0  0  0
  6 32  1  0  0  0
  7 33  1  0  0  0
  7 34  1  0  0  0
  7 35  1  0  0  0
  8  9  2  0  0  0
  8 13  1  0  0  0
  9 10  1  0  0  0
  9 36  1  0  0  0
 10 11  2  0  0  0
 10 37  1  0  0  0
 11 12  1  0  0  0
 11 14  1  0  0  0
 12 13  2  0  0  0
 12 38  1  0  0  0
 13 39  1  0  0  0
 14 40  1  0  0  0
 15 16  2  0  0  0
 15 20  1  0  0  0
 16 17  1  0  0  0
 16 41  1  0  0  0
 17 18  2  0  0  0
 17 42  1  0  0  0
 18 19  1  0  0  0
 18 21  1  0  0  0
 19 20  2  0  0  0
 19 43  1  0  0  0
 20 44  1  0  0  0
 21 45  1  0  0  0
M  END
>  <Name>
tox-63

>  <substance>
4,4-Bis(4-hydroxyphenyl)heptane

>  <CASRN>
7425-79-8

>  <from_NCI>
0

>  <RBA>
0.200000

>  <method>
RUC

>  <chemical_class>
Diphenolalkane

>  <set>
1

$$$$
tox-64
  Cerius2 12190218263D 1   1.00000                          
 Structure written by MMmdl.
 42 43  0  0  0  0  0  0  0  0999 V2000
    1.6911   -0.2772    0.6325 C   0  0  0  0  0  0
   -1.6821    0.8984   -0.7491 C   0  0  0  0  0  0
   -0.1599    0.7148   -0.8233 C   0  0  0  0  0  0
    0.6170    0.8203    0.5446 C   0  0  0  0  0  0
    2.9653   -0.1487    0.0342 C   0  0  0  0  0  0
   -2.3223    1.7309    0.1954 C   0  0  0  0  0  0
   -3.7235    1.9147    0.2691 C   0  0  0  0  0  0
    3.9660   -1.1461    0.0854 C   0  0  0  0  0  0
    5.1071   -1.0046   -0.4593 O   0  0  0  0  0  0
   -4.2735    2.6685    1.1342 O   0  0  0  0  0  0
   -2.4841    0.2209   -1.6760 C   0  0  0  0  0  0
    1.3931   -1.4658    1.3069 C   0  0  0  0  0  0
    0.4543    1.4837   -2.0244 C   0  0  0  0  0  0
    1.1680    2.2229    0.8917 C   0  0  0  0  0  0
    2.3437   -2.4759    1.3860 C   0  0  0  0  0  0
   -3.8652    0.3689   -1.6470 C   0  0  0  0  0  0
    3.5994   -2.3095    0.7864 C   0  0  0  0  0  0
   -4.4622    1.1993   -0.6904 C   0  0  0  0  0  0
    0.0828    2.9545   -2.1761 C   0  0  0  0  0  0
    1.6851    2.3260    2.3246 C   0  0  0  0  0  0
   -0.0558   -0.3468   -1.1031 H   0  0  0  0  0  0
   -0.1019    0.5796    1.3414 H   0  0  0  0  0  0
    3.1951    0.7761   -0.5005 H   0  0  0  0  0  0
   -1.7079    2.2721    0.9168 H   0  0  0  0  0  0
   -2.0371   -0.4281   -2.4279 H   0  0  0  0  0  0
    0.4205   -1.6145    1.7734 H   0  0  0  0  0  0
    0.1350    0.9814   -2.9481 H   0  0  0  0  0  0
    1.5448    1.3931   -2.0099 H   0  0  0  0  0  0
    0.3735    2.9675    0.7862 H   0  0  0  0  0  0
    1.9699    2.5209    0.2083 H   0  0  0  0  0  0
    2.1142   -3.4007    1.9126 H   0  0  0  0  0  0
   -4.4860   -0.1601   -2.3678 H   0  0  0  0  0  0
    4.3125   -3.1339    0.8763 H   0  0  0  0  0  0
   -5.5525    1.2833   -0.7070 H   0  0  0  0  0  0
    0.5631    3.3617   -3.0726 H   0  0  0  0  0  0
    0.4129    3.5603   -1.3316 H   0  0  0  0  0  0
   -0.9956    3.0896   -2.2992 H   0  0  0  0  0  0
    1.9959    3.3542    2.5366 H   0  0  0  0  0  0
    2.5496    1.6770    2.4916 H   0  0  0  0  0  0
    0.9047    2.0551    3.0429 H   0  0  0  0  0  0
    5.5734   -1.7025   -0.3255 H   0  0  0  0  0  0
   -5.1166    2.6552    1.0266 H   0  0  0  0  0  0
  1  4  1  0  0  0
  1  5  2  0  0  0
  1 12  1  0  0  0
  2  3  1  0  0  0
  2  6  2  0  0  0
  2 11  1  0  0  0
  3  4  1  0  0  0
  3 13  1  0  0  0
  3 21  1  0  0  0
  4 14  1  0  0  0
  4 22  1  0  0  0
  5  8  1  0  0  0
  5 23  1  0  0  0
  6  7  1  0  0  0
  6 24  1  0  0  0
  7 10  1  0  0  0
  7 18  2  0  0  0
  8  9  1  0  0  0
  8 17  2  0  0  0
  9 41  1  0  0  0
 10 42  1  0  0  0
 11 16  2  0  0  0
 11 25  1  0  0  0
 12 15  2  0  0  0
 12 26  1  0  0  0
 13 19  1  0  0  0
 13 27  1  0  0  0
 13 28  1  0  0  0
 14 20  1  0  0  0
 14 29  1  0  0  0
 14 30  1  0  0  0
 15 17  1  0  0  0
 15 31  1  0  0  0
 16 18  1  0  0  0
 16 32  1  0  0  0
 17 33  1  0  0  0
 18 34  1  0  0  0
 19 35  1  0  0  0
 19 36  1  0  0  0
 19 37  1  0  0  0
 20 38  1  0  0  0
 20 39  1  0  0  0
 20 40  1  0  0  0
M  END
>  <Name>
tox-64

>  <substance>
3,4-Bis(3-hydroxyphenyl)hexane

>  <CASRN>
68266-24-0

>  <from_NCI>
1

>  <RBA>
10.000000

>  <method>
MCF-7 cytosol

>  <chemical_class>
Diphenolalkane

>  <set>
2

$$$$
tox-65
  Cerius2 12190218263D 1   1.00000                          
 Structure written by MMmdl.
 39 40  0  0  0  0  0  0  0  0999 V2000
   -2.4202   -2.1620    0.2113 C   0  0  0  0  0  0
   -1.5118   -2.4471    1.4064 C   0  0  0  0  0  0
   -0.0986   -1.7417    1.4260 C   0  0  0  0  0  0
    0.5353   -2.1708    2.8078 C   0  0  0  0  0  0
    1.9601   -1.7027    3.1000 C   0  0  0  0  0  0
   -0.1837   -0.1849    1.4697 C   0  0  0  0  0  0
   -1.3010    0.4892    1.9987 C   0  0  0  0  0  0
   -1.3467    1.8869    2.0643 C   0  0  0  0  0  0
   -0.2678    2.6361    1.6193 C   0  0  0  0  0  0
    0.8629    2.0098    1.1173 C   0  0  0  0  0  0
    0.9051    0.6127    1.0533 C   0  0  0  0  0  0
   -0.3496    3.9944    1.7005 O   0  0  0  0  0  0
    0.6684   -2.3055    0.1906 C   0  0  0  0  0  0
    1.4438   -3.4788    0.2619 C   0  0  0  0  0  0
    2.0969   -3.9919   -0.8650 C   0  0  0  0  0  0
    1.9714   -3.3517   -2.0889 C   0  0  0  0  0  0
    1.1941   -2.2096   -2.2076 C   0  0  0  0  0  0
    0.5429   -1.6995   -1.0792 C   0  0  0  0  0  0
    2.6217   -3.8823   -3.1630 O   0  0  0  0  0  0
   -3.4141   -2.5830    0.3987 H   0  0  0  0  0  0
   -2.0447   -2.6333   -0.7012 H   0  0  0  0  0  0
   -2.5444   -1.0924    0.0257 H   0  0  0  0  0  0
   -1.3710   -3.5367    1.4508 H   0  0  0  0  0  0
   -2.0675   -2.1985    2.3195 H   0  0  0  0  0  0
    0.5117   -3.2634    2.9077 H   0  0  0  0  0  0
   -0.0993   -1.8000    3.6257 H   0  0  0  0  0  0
    2.3276   -2.1941    4.0076 H   0  0  0  0  0  0
    1.9998   -0.6259    3.2859 H   0  0  0  0  0  0
    2.6538   -1.9427    2.2907 H   0  0  0  0  0  0
   -2.1627   -0.0537    2.3799 H   0  0  0  0  0  0
   -2.2275    2.3793    2.4708 H   0  0  0  0  0  0
    1.7224    2.5833    0.7784 H   0  0  0  0  0  0
    1.8171    0.1493    0.6772 H   0  0  0  0  0  0
    0.4840    4.3747    1.3497 H   0  0  0  0  0  0
    1.5556   -4.0287    1.1934 H   0  0  0  0  0  0
    2.6957   -4.8958   -0.7765 H   0  0  0  0  0  0
    1.0743   -1.7052   -3.1634 H   0  0  0  0  0  0
   -0.0805   -0.8149   -1.2095 H   0  0  0  0  0  0
    2.4345   -3.3202   -3.9450 H   0  0  0  0  0  0
  1  2  1  0  0  0
  1 20  1  0  0  0
  1 21  1  0  0  0
  1 22  1  0  0  0
  2  3  1  0  0  0
  2 23  1  0  0  0
  2 24  1  0  0  0
  3  4  1  0  0  0
  3  6  1  0  0  0
  3 13  1  0  0  0
  4  5  1  0  0  0
  4 25  1  0  0  0
  4 26  1  0  0  0
  5 27  1  0  0  0
  5 28  1  0  0  0
  5 29  1  0  0  0
  6  7  2  0  0  0
  6 11  1  0  0  0
  7  8  1  0  0  0
  7 30  1  0  0  0
  8  9  2  0  0  0
  8 31  1  0  0  0
  9 10  1  0  0  0
  9 12  1  0  0  0
 10 11  2  0  0  0
 10 32  1  0  0  0
 11 33  1  0  0  0
 12 34  1  0  0  0
 13 14  2  0  0  0
 13 18  1  0  0  0
 14 15  1  0  0  0
 14 35  1  0  0  0
 15 16  2  0  0  0
 15 36  1  0  0  0
 16 17  1  0  0  0
 16 19  1  0  0  0
 17 18  2  0  0  0
 17 37  1  0  0  0
 18 38  1  0  0  0
 19 39  1  0  0  0
M  END
>  <Name>
tox-65

>  <substance>
3,3-Bis(4-hydroxyphenyl)pentane

>  <CASRN>
3600-64-4

>  <from_NCI>
0

>  <RBA>
0.200000

>  <method>
RUC

>  <chemical_class>
Diphenolalkane; Bisphenol

>  <set>
0

$$$$
tox-66
  Cerius2 12190218263D 1   1.00000                          
 Structure written by MMmdl.
 33 34  0  0  0  0  0  0  0  0999 V2000
   -0.7362    0.9349   -1.5830 C   0  0  0  0  0  0
   -1.5313    0.3710   -2.7871 C   0  0  0  0  0  0
   -2.8328    1.1242   -3.0434 C   0  0  0  0  0  0
    0.7006    0.4130   -1.5041 C   0  0  0  0  0  0
    1.7199    1.2764   -1.0624 C   0  0  0  0  0  0
    3.0418    0.8352   -0.9649 C   0  0  0  0  0  0
    3.3554   -0.4750   -1.3014 C   0  0  0  0  0  0
    2.3672   -1.3526   -1.7310 C   0  0  0  0  0  0
    1.0440   -0.9101   -1.8285 C   0  0  0  0  0  0
    4.6558   -0.8714   -1.1941 O   0  0  0  0  0  0
   -1.4676    0.7664   -0.2522 C   0  0  0  0  0  0
   -1.8839   -0.4932    0.2099 C   0  0  0  0  0  0
   -2.5500   -0.6203    1.4315 C   0  0  0  0  0  0
   -2.8006    0.5090    2.2009 C   0  0  0  0  0  0
   -2.3940    1.7661    1.7700 C   0  0  0  0  0  0
   -1.7277    1.8929    0.5479 C   0  0  0  0  0  0
   -3.4531    0.3451    3.3872 O   0  0  0  0  0  0
   -0.6516    2.0140   -1.7823 H   0  0  0  0  0  0
   -1.7649   -0.6918   -2.6558 H   0  0  0  0  0  0
   -0.9154    0.4451   -3.6930 H   0  0  0  0  0  0
   -3.3232    0.7304   -3.9394 H   0  0  0  0  0  0
   -2.6447    2.1907   -3.2031 H   0  0  0  0  0  0
   -3.5306    1.0172   -2.2075 H   0  0  0  0  0  0
    1.4882    2.3055   -0.7888 H   0  0  0  0  0  0
    3.8172    1.5176   -0.6245 H   0  0  0  0  0  0
    2.6033   -2.3820   -1.9909 H   0  0  0  0  0  0
    0.2864   -1.6192   -2.1573 H   0  0  0  0  0  0
    4.7147   -1.8128   -1.4646 H   0  0  0  0  0  0
   -1.6914   -1.3904   -0.3758 H   0  0  0  0  0  0
   -2.8674   -1.6021    1.7753 H   0  0  0  0  0  0
   -2.5839    2.6550    2.3669 H   0  0  0  0  0  0
   -1.4128    2.8841    0.2228 H   0  0  0  0  0  0
   -3.5529    1.2255    3.8085 H   0  0  0  0  0  0
  1  2  1  0  0  0
  1  4  1  0  0  0
  1 11  1  0  0  0
  1 18  1  0  0  0
  2  3  1  0  0  0
  2 19  1  0  0  0
  2 20  1  0  0  0
  3 21  1  0  0  0
  3 22  1  0  0  0
  3 23  1  0  0  0
  4  5  2  0  0  0
  4  9  1  0  0  0
  5  6  1  0  0  0
  5 24  1  0  0  0
  6  7  2  0  0  0
  6 25  1  0  0  0
  7  8  1  0  0  0
  7 10  1  0  0  0
  8  9  2  0  0  0
  8 26  1  0  0  0
  9 27  1  0  0  0
 10 28  1  0  0  0
 11 12  2  0  0  0
 11 16  1  0  0  0
 12 13  1  0  0  0
 12 29  1  0  0  0
 13 14  2  0  0  0
 13 30  1  0  0  0
 14 15  1  0  0  0
 14 17  1  0  0  0
 15 16  2  0  0  0
 15 31  1  0  0  0
 16 32  1  0  0  0
 17 33  1  0  0  0
M  END
>  <Name>
tox-66

>  <substance>
1,1-Bis(4-hydroxyphenyl)propane

>  <CASRN>
1576-13-2

>  <from_NCI>
0

>  <RBA>
0.200000

>  <method>
RUC

>  <chemical_class>
Diphenolalkane; Bisphenol

>  <set>
0

$$$$
tox-67
  Cerius2 12190218263D 1   1.00000                          
 Structure written by MMmdl.
 34 35  0  0  0  0  0  0  0  0999 V2000
    0.1033   -2.0207   -2.6185 C   0  0  0  0  0  0
   -0.6761   -1.7854   -1.2762 C   0  0  0  0  0  0
   -2.0117   -2.5731   -1.3768 C   0  0  0  0  0  0
    0.1435   -3.3967   -3.0204 O   0  0  0  0  0  0
   -0.8764   -0.2460   -1.1749 C   0  0  0  0  0  0
   -2.1315    0.3713   -1.3213 C   0  0  0  0  0  0
   -2.2657    1.7615   -1.2360 C   0  0  0  0  0  0
   -1.1487    2.5532   -1.0072 C   0  0  0  0  0  0
    0.1060    1.9781   -0.8627 C   0  0  0  0  0  0
    0.2397    0.5890   -0.9480 C   0  0  0  0  0  0
   -1.3224    3.9033   -0.9313 O   0  0  0  0  0  0
    0.0442   -2.3158   -0.0046 C   0  0  0  0  0  0
   -0.5108   -2.0590    1.2686 C   0  0  0  0  0  0
    0.1037   -2.5175    2.4371 C   0  0  0  0  0  0
    1.2830   -3.2424    2.3524 C   0  0  0  0  0  0
    1.8555   -3.5160    1.1173 C   0  0  0  0  0  0
    1.2385   -3.0560   -0.0527 C   0  0  0  0  0  0
    1.8568   -3.6752    3.5109 O   0  0  0  0  0  0
    1.1350   -1.6548   -2.5589 H   0  0  0  0  0  0
   -0.3878   -1.4757   -3.4349 H   0  0  0  0  0  0
   -2.6886   -2.3552   -0.5422 H   0  0  0  0  0  0
   -1.8396   -3.6565   -1.3683 H   0  0  0  0  0  0
   -2.5471   -2.3368   -2.3042 H   0  0  0  0  0  0
    0.6343   -3.4090   -3.8695 H   0  0  0  0  0  0
   -3.0332   -0.2085   -1.5066 H   0  0  0  0  0  0
   -3.2471    2.2169   -1.3511 H   0  0  0  0  0  0
    0.9887    2.5874   -0.6837 H   0  0  0  0  0  0
    1.2344    0.1589   -0.8292 H   0  0  0  0  0  0
   -0.4485    4.3180   -0.7675 H   0  0  0  0  0  0
   -1.4345   -1.4879    1.3613 H   0  0  0  0  0  0
   -0.3442   -2.3032    3.4047 H   0  0  0  0  0  0
    2.7788   -4.0860    1.0400 H   0  0  0  0  0  0
    1.7170   -3.2987   -0.9990 H   0  0  0  0  0  0
    2.6752   -4.1670    3.2850 H   0  0  0  0  0  0
  1  2  1  0  0  0
  1  4  1  0  0  0
  1 19  1  0  0  0
  1 20  1  0  0  0
  2  3  1  0  0  0
  2  5  1  0  0  0
  2 12  1  0  0  0
  3 21  1  0  0  0
  3 22  1  0  0  0
  3 23  1  0  0  0
  4 24  1  0  0  0
  5  6  2  0  0  0
  5 10  1  0  0  0
  6  7  1  0  0  0
  6 25  1  0  0  0
  7  8  2  0  0  0
  7 26  1  0  0  0
  8  9  1  0  0  0
  8 11  1  0  0  0
  9 10  2  0  0  0
  9 27  1  0  0  0
 10 28  1  0  0  0
 11 29  1  0  0  0
 12 13  2  0  0  0
 12 17  1  0  0  0
 13 14  1  0  0  0
 13 30  1  0  0  0
 14 15  2  0  0  0
 14 31  1  0  0  0
 15 16  1  0  0  0
 15 18  1  0  0  0
 16 17  2  0  0  0
 16 32  1  0  0  0
 17 33  1  0  0  0
 18 34  1  0  0  0
M  END
>  <Name>
tox-67

>  <substance>
2,2-Bis(4-hydroxyphenyl)propanol

>  <CASRN>
142648-65-5

>  <from_NCI>
0

>  <RBA>
0.008000

>  <method>
RUC

>  <chemical_class>
Bisphenol

>  <set>
2

$$$$
tox-68
  Cerius2 12190218263D 1   1.00000                          
 Structure written by MMmdl.
 30 31  0  0  0  0  0  0  0  0999 V2000
    3.8713    2.9445    1.7459 O   0  0  0  0  0  0
    2.7611    2.3262    1.6903 C   0  0  0  0  0  0
    1.5853    2.9089    1.1831 C   0  0  0  0  0  0
    0.3476    2.2368    1.1168 C   0  0  0  0  0  0
    0.2178    0.9237    1.5711 C   0  0  0  0  0  0
    1.3770    0.3106    2.0682 C   0  0  0  0  0  0
    2.6030    0.9994    2.1258 C   0  0  0  0  0  0
   -1.0950    0.1173    1.5260 C   0  0  0  0  0  0
   -1.1927   -0.7268    0.2431 C   0  0  0  0  0  0
   -1.3352   -2.1170    0.3240 C   0  0  0  0  0  0
   -1.4235   -2.9070   -0.8375 C   0  0  0  0  0  0
   -1.3731   -2.3749   -2.1387 C   0  0  0  0  0  0
   -1.4531   -3.0961   -3.1834 O   0  0  0  0  0  0
   -1.2241   -0.9762   -2.1849 C   0  0  0  0  0  0
   -1.1337   -0.1673   -1.0355 C   0  0  0  0  0  0
   -2.4291    0.8401    1.9450 C   0  0  0  0  0  0
   -2.2300    1.7605    3.5014 Cl  0  0  0  0  0  0
   -3.1117    1.9828    0.7251 Cl  0  0  0  0  0  0
   -3.7476   -0.3808    2.2823 Cl  0  0  0  0  0  0
    1.6129    3.9380    0.8122 H   0  0  0  0  0  0
   -0.4916    2.7804    0.6927 H   0  0  0  0  0  0
    1.3477   -0.7204    2.4217 H   0  0  0  0  0  0
    3.4627    0.4576    2.5305 H   0  0  0  0  0  0
   -0.9528   -0.6156    2.3382 H   0  0  0  0  0  0
   -1.3818   -2.6152    1.2922 H   0  0  0  0  0  0
   -1.5360   -3.9864   -0.7005 H   0  0  0  0  0  0
   -1.1713   -0.4723   -3.1545 H   0  0  0  0  0  0
   -1.0109    0.9058   -1.1721 H   0  0  0  0  0  0
    4.4634    2.4342    2.0799 H   0  0  0  0  0  0
   -1.4041   -2.6019   -3.8733 H   0  0  0  0  0  0
  1  2  1  0  0  0
  1 29  1  0  0  0
  2  3  2  0  0  0
  2  7  1  0  0  0
  3  4  1  0  0  0
  3 20  1  0  0  0
  4  5  2  0  0  0
  4 21  1  0  0  0
  5  6  1  0  0  0
  5  8  1  0  0  0
  6  7  2  0  0  0
  6 22  1  0  0  0
  7 23  1  0  0  0
  8  9  1  0  0  0
  8 16  1  0  0  0
  8 24  1  0  0  0
  9 10  2  0  0  0
  9 15  1  0  0  0
 10 11  1  0  0  0
 10 25  1  0  0  0
 11 12  2  0  0  0
 11 26  1  0  0  0
 12 13  1  0  0  0
 12 14  1  0  0  0
 13 30  1  0  0  0
 14 15  2  0  0  0
 14 27  1  0  0  0
 15 28  1  0  0  0
 16 17  1  0  0  0
 16 18  1  0  0  0
 16 19  1  0  0  0
M  END
>  <Name>
tox-68

>  <substance>
2,2-Bis(p-hydroxyphenyl)-1,1,1- trichloroethane

>  <CASRN>
2971-36-0

>  <from_NCI>
1

>  <RBA>
1.500000

>  <method>
GST-hERadef,GST-mERadef,hERa,hERa-FP,MUC,RUC,RUC,RUC

>  <chemical_class>
Organochlorine; Bisphenol

>  <set>
2

$$$$
tox-69
  Cerius2 12190218263D 1   1.00000                          
 Structure written by MMmdl.
 33 34  0  0  0  0  0  0  0  0999 V2000
    1.6314    0.0000   -1.7879 C   0  0  0  0  0  0
    0.0836   -0.0300   -1.8110 C   0  0  0  0  0  0
    2.1693    0.0299   -0.3364 C   0  0  0  0  0  0
    2.0631    1.2292   -2.6337 C   0  0  0  0  0  0
    2.2849   -1.2292   -2.4770 C   0  0  0  0  0  0
   -0.6571   -1.0190   -2.4659 C   0  0  0  0  0  0
   -0.6515    0.9782   -1.1697 C   0  0  0  0  0  0
    3.0336    1.0189    0.1436 C   0  0  0  0  0  0
    1.8098   -0.9783    0.5705 C   0  0  0  0  0  0
   -2.0666   -0.9920   -2.4726 C   0  0  0  0  0  0
   -2.0592    0.9873   -1.1883 C   0  0  0  0  0  0
    3.5098    0.9920    1.4702 C   0  0  0  0  0  0
    2.2965   -0.9873    1.8916 C   0  0  0  0  0  0
   -2.8271    0.0066   -1.8389 C   0  0  0  0  0  0
    3.1658   -0.0065    2.3986 C   0  0  0  0  0  0
   -4.0988    0.0209   -1.8536 O   0  0  0  0  0  0
    3.6034   -0.0206    3.5927 O   0  0  0  0  0  0
    3.1532    1.2832   -2.7407 H   0  0  0  0  0  0
    1.7282    2.1761   -2.1941 H   0  0  0  0  0  0
    1.6420    1.1788   -3.6458 H   0  0  0  0  0  0
    3.3795   -1.1787   -2.4176 H   0  0  0  0  0  0
    2.0221   -1.2832   -3.5404 H   0  0  0  0  0  0
    1.9823   -2.1762   -2.0148 H   0  0  0  0  0  0
   -0.1724   -1.8382   -2.9927 H   0  0  0  0  0  0
   -0.1386    1.7796   -0.6378 H   0  0  0  0  0  0
    3.3688    1.8381   -0.4891 H   0  0  0  0  0  0
    1.1373   -1.7798    0.2643 H   0  0  0  0  0  0
   -2.5772   -1.7994   -3.0062 H   0  0  0  0  0  0
   -2.5604    1.8065   -0.6646 H   0  0  0  0  0  0
    4.1830    1.7995    1.7738 H   0  0  0  0  0  0
    1.9698   -1.8064    2.5387 H   0  0  0  0  0  0
   -4.3796    0.6963   -1.4206 H   0  0  0  0  0  0
    3.2887   -0.6960    4.0018 H   0  0  0  0  0  0
  1  2  1  0  0  0
  1  3  1  0  0  0
  1  4  1  0  0  0
  1  5  1  0  0  0
  2  6  2  0  0  0
  2  7  1  0  0  0
  3  8  2  0  0  0
  3  9  1  0  0  0
  4 18  1  0  0  0
  4 19  1  0  0  0
  4 20  1  0  0  0
  5 21  1  0  0  0
  5 22  1  0  0  0
  5 23  1  0  0  0
  6 10  1  0  0  0
  6 24  1  0  0  0
  7 11  2  0  0  0
  7 25  1  0  0  0
  8 12  1  0  0  0
  8 26  1  0  0  0
  9 13  2  0  0  0
  9 27  1  0  0  0
 10 14  2  0  0  0
 10 28  1  0  0  0
 11 14  1  0  0  0
 11 29  1  0  0  0
 12 15  2  0  0  0
 12 30  1  0  0  0
 13 15  1  0  0  0
 13 31  1  0  0  0
 14 16  1  0  0  0
 15 17  1  0  0  0
 16 32  1  0  0  0
 17 33  1  0  0  0
M  END
>  <Name>
tox-69

>  <substance>
Bisphenol A

>  <CASRN>
80-05-7

>  <from_NCI>
1

>  <RBA>
0.100000

>  <method>
GST-hERadef,GST-mERadef,hERa,hERa,hERa,hERa-FP,hERa-FP,MCF-7 cytosol,MUC,RBC,RUC,RUC,RUC,RUC,RUC

>  <chemical_class>
Bisphenol

>  <set>
1

$$$$
tox-70
  Cerius2 12190218263D 1   1.00000                          
 Structure written by MMmdl.
 37 38  0  0  0  0  0  0  0  0999 V2000
    1.7884    4.2134   -2.9088 O   0  0  0  0  0  0
    2.8019    3.7684   -2.3664 C   0  0  0  0  0  0
    2.8775    2.4971   -1.7851 O   0  0  0  0  0  0
    1.6984    1.7556   -1.8677 C   0  0  0  0  0  0
    0.7810    1.8174   -0.8260 C   0  0  0  0  0  0
   -0.3753    1.0377   -0.8928 C   0  0  0  0  0  0
   -0.6220    0.1777   -1.9869 C   0  0  0  0  0  0
    0.3407    0.1292   -3.0128 C   0  0  0  0  0  0
    1.5006    0.9075   -2.9520 C   0  0  0  0  0  0
   -1.9239   -0.6640   -2.0170 C   0  0  0  0  0  0
   -2.0420   -1.5372   -0.7413 C   0  0  0  0  0  0
   -3.1618   -1.4931    0.1110 C   0  0  0  0  0  0
   -3.2321   -2.2963    1.2526 C   0  0  0  0  0  0
   -2.1718   -3.1426    1.5550 C   0  0  0  0  0  0
   -2.2557   -3.9679    2.6842 O   0  0  0  0  0  0
   -1.7485   -3.5149    3.9232 C   0  0  0  0  0  0
   -1.8395   -4.2761    4.8923 O   0  0  0  0  0  0
   -1.0289   -1.9224    4.0213 Cl  0  0  0  0  0  0
   -1.0608   -3.2358    0.7267 C   0  0  0  0  0  0
   -0.9974   -2.4305   -0.4114 C   0  0  0  0  0  0
   -2.0139   -1.6334   -3.2255 C   0  0  0  0  0  0
   -3.0933    0.3403   -2.1970 C   0  0  0  0  0  0
    4.3064    4.6452   -2.2328 Cl  0  0  0  0  0  0
    0.9541    2.4606    0.0330 H   0  0  0  0  0  0
   -1.0888    1.0987   -0.0710 H   0  0  0  0  0  0
    0.2144   -0.5158   -3.8796 H   0  0  0  0  0  0
    2.2370    0.8448   -3.7497 H   0  0  0  0  0  0
   -4.0051   -0.8370   -0.0933 H   0  0  0  0  0  0
   -4.1093   -2.2523    1.8936 H   0  0  0  0  0  0
   -0.2478   -3.9196    0.9560 H   0  0  0  0  0  0
   -0.1153   -2.5025   -1.0478 H   0  0  0  0  0  0
   -2.9377   -2.2246   -3.1885 H   0  0  0  0  0  0
   -1.1800   -2.3445   -3.2541 H   0  0  0  0  0  0
   -2.0169   -1.0912   -4.1787 H   0  0  0  0  0  0
   -4.0546   -0.1750   -2.3112 H   0  0  0  0  0  0
   -2.9497    0.9557   -3.0942 H   0  0  0  0  0  0
   -3.1877    1.0282   -1.3485 H   0  0  0  0  0  0
  1  2  2  0  0  0
  2  3  1  0  0  0
  2 23  1  0  0  0
  3  4  1  0  0  0
  4  5  2  0  0  0
  4  9  1  0  0  0
  5  6  1  0  0  0
  5 24  1  0  0  0
  6  7  2  0  0  0
  6 25  1  0  0  0
  7  8  1  0  0  0
  7 10  1  0  0  0
  8  9  2  0  0  0
  8 26  1  0  0  0
  9 27  1  0  0  0
 10 11  1  0  0  0
 10 21  1  0  0  0
 10 22  1  0  0  0
 11 12  2  0  0  0
 11 20  1  0  0  0
 12 13  1  0  0  0
 12 28  1  0  0  0
 13 14  2  0  0  0
 13 29  1  0  0  0
 14 15  1  0  0  0
 14 19  1  0  0  0
 15 16  1  0  0  0
 16 17  2  0  0  0
 16 18  1  0  0  0
 19 20  2  0  0  0
 19 30  1  0  0  0
 20 31  1  0  0  0
 21 32  1  0  0  0
 21 33  1  0  0  0
 21 34  1  0  0  0
 22 35  1  0  0  0
 22 36  1  0  0  0
 22 37  1  0  0  0
M  END
>  <Name>
tox-70

>  <substance>
Bisphenol A bis(chloroformate)

>  <CASRN>
2024-88-6

>  <from_NCI>
1

>  <RBA>
0.020000

>  <method>
RUC

>  <chemical_class>
Bisphenol

>  <set>
1

$$$$
tox-71
  Cerius2 12190218263D 1   1.00000                          
 Structure written by MMmdl.
 49 52  0  0  0  0  0  0  0  0999 V2000
    3.1649    1.7521   -0.5332 C   0  0  0  0  0  0
    1.9120    2.6585   -0.4395 C   0  0  0  0  0  0
    2.7736    0.2593   -0.3954 C   0  0  0  0  0  0
    4.1474    2.2429    0.5632 C   0  0  0  0  0  0
    3.9319    1.8855   -1.8757 C   0  0  0  0  0  0
    1.0675    2.5694    0.6856 C   0  0  0  0  0  0
    1.5673    3.5897   -1.4303 C   0  0  0  0  0  0
    3.3356   -0.5920    0.5675 C   0  0  0  0  0  0
    1.8161   -0.2952   -1.2687 C   0  0  0  0  0  0
   -0.0763    3.3685    0.8126 C   0  0  0  0  0  0
    0.4243    4.3883   -1.3015 C   0  0  0  0  0  0
    2.9490   -1.9351    0.6546 C   0  0  0  0  0  0
    1.4299   -1.6389   -1.1798 C   0  0  0  0  0  0
   -0.4043    4.2818   -0.1844 C   0  0  0  0  0  0
    1.9949   -2.4656   -0.2138 C   0  0  0  0  0  0
   -1.4869    5.1165   -0.1895 O   0  0  0  0  0  0
    1.7094   -3.7878   -0.0165 O   0  0  0  0  0  0
   -2.3899    5.0148    0.9179 C   0  0  0  0  0  0
    0.7058   -4.3667   -0.8580 C   0  0  0  0  0  0
   -3.5217    5.9636    0.6833 C   0  0  0  0  0  0
    0.5495   -5.8010   -0.4667 C   0  0  0  0  0  0
   -4.3092    6.5350    1.8308 C   0  0  0  0  0  0
   -3.3047    7.3050    1.1460 O   0  0  0  0  0  0
   -0.4202   -6.2157    0.6063 C   0  0  0  0  0  0
   -0.7202   -6.3869   -0.7899 O   0  0  0  0  0  0
    5.1028    1.7062    0.5190 H   0  0  0  0  0  0
    3.7435    2.1131    1.5741 H   0  0  0  0  0  0
    4.3720    3.3102    0.4421 H   0  0  0  0  0  0
    4.7921    1.2047   -1.9077 H   0  0  0  0  0  0
    4.3203    2.9010   -2.0199 H   0  0  0  0  0  0
    3.3027    1.6481   -2.7415 H   0  0  0  0  0  0
    1.2920    1.8616    1.4840 H   0  0  0  0  0  0
    2.1724    3.7201   -2.3248 H   0  0  0  0  0  0
    4.0836   -0.2384    1.2735 H   0  0  0  0  0  0
    1.3492    0.3248   -2.0345 H   0  0  0  0  0  0
   -0.6823    3.2441    1.7058 H   0  0  0  0  0  0
    0.1840    5.1002   -2.0900 H   0  0  0  0  0  0
    3.4027   -2.5688    1.4153 H   0  0  0  0  0  0
    0.6842   -1.9974   -1.8841 H   0  0  0  0  0  0
   -1.8687    5.2632    1.8505 H   0  0  0  0  0  0
   -2.7980    3.9991    0.9776 H   0  0  0  0  0  0
    1.0239   -4.3235   -1.9061 H   0  0  0  0  0  0
   -0.2438   -3.8316   -0.7346 H   0  0  0  0  0  0
   -4.0085    5.8253   -0.2724 H   0  0  0  0  0  0
    1.4412   -6.3907   -0.6284 H   0  0  0  0  0  0
   -4.0858    6.2120    2.8395 H   0  0  0  0  0  0
   -5.3433    6.8069    1.6598 H   0  0  0  0  0  0
   -0.9615   -5.4495    1.1470 H   0  0  0  0  0  0
   -0.1972   -7.1052    1.1817 H   0  0  0  0  0  0
  1  2  1  0  0  0
  1  3  1  0  0  0
  1  4  1  0  0  0
  1  5  1  0  0  0
  2  6  2  0  0  0
  2  7  1  0  0  0
  3  8  2  0  0  0
  3  9  1  0  0  0
  4 26  1  0  0  0
  4 27  1  0  0  0
  4 28  1  0  0  0
  5 29  1  0  0  0
  5 30  1  0  0  0
  5 31  1  0  0  0
  6 10  1  0  0  0
  6 32  1  0  0  0
  7 11  2  0  0  0
  7 33  1  0  0  0
  8 12  1  0  0  0
  8 34  1  0  0  0
  9 13  2  0  0  0
  9 35  1  0  0  0
 10 14  2  0  0  0
 10 36  1  0  0  0
 11 14  1  0  0  0
 11 37  1  0  0  0
 12 15  2  0  0  0
 12 38  1  0  0  0
 13 15  1  0  0  0
 13 39  1  0  0  0
 14 16  1  0  0  0
 15 17  1  0  0  0
 16 18  1  0  0  0
 17 19  1  0  0  0
 18 20  1  0  0  0
 18 40  1  0  0  0
 18 41  1  0  0  0
 19 21  1  0  0  0
 19 42  1  0  0  0
 19 43  1  0  0  0
 20 22  1  0  0  0
 20 23  1  0  0  0
 20 44  1  0  0  0
 21 24  1  0  0  0
 21 25  1  0  0  0
 21 45  1  0  0  0
 22 23  1  0  0  0
 22 46  1  0  0  0
 22 47  1  0  0  0
 24 25  1  0  0  0
 24 48  1  0  0  0
 24 49  1  0  0  0
M  END
>  <Name>
tox-71

>  <substance>
Bisphenol A diglycidyl ether

>  <CASRN>
1675-54-3

>  <from_NCI>
1

>  <RBA>
0.000000

>  <method>
RUC,RUC

>  <chemical_class>
Bisphenol

>  <set>
1

$$$$
tox-72
  Cerius2 12190218263D 1   1.00000                          
 Structure written by MMmdl.
 73 74  0  0  0  0  0  0  0  0999 V2000
    3.7279   -0.3501    5.2298 C   0  0  0  0  0  0
    2.4473   -1.2046    5.0562 C   0  0  0  0  0  0
    3.9710    0.5541    3.9924 C   0  0  0  0  0  0
    5.0144   -1.1984    5.4252 C   0  0  0  0  0  0
    3.5605    0.4486    6.5523 C   0  0  0  0  0  0
    2.4437   -2.6062    5.1402 C   0  0  0  0  0  0
    1.2106   -0.5725    4.8237 C   0  0  0  0  0  0
    4.1711   -0.0320    2.7267 C   0  0  0  0  0  0
    4.0195    1.9566    4.0645 C   0  0  0  0  0  0
    1.2571   -3.3379    4.9937 C   0  0  0  0  0  0
    0.0242   -1.3046    4.6795 C   0  0  0  0  0  0
    4.4474    0.7408    1.5908 C   0  0  0  0  0  0
    4.2818    2.7294    2.9252 C   0  0  0  0  0  0
    0.0422   -2.6952    4.7597 C   0  0  0  0  0  0
    4.5201    2.1276    1.6913 C   0  0  0  0  0  0
   -1.0402   -3.5241    4.6271 O   0  0  0  0  0  0
    4.7746    2.9852    0.6556 O   0  0  0  0  0  0
   -2.3104   -2.8955    4.3802 C   0  0  0  0  0  0
    5.5441    2.4495   -0.4379 C   0  0  0  0  0  0
   -3.4118   -3.9849    4.1750 C   0  0  0  0  0  0
    5.9297    3.6085   -1.4159 C   0  0  0  0  0  0
   -4.6753   -3.2748    3.6000 C   0  0  0  0  0  0
   -3.7212   -4.5258    5.3534 O   0  0  0  0  0  0
    6.5333    2.9792   -2.7082 C   0  0  0  0  0  0
    6.8583    4.3783   -0.8465 O   0  0  0  0  0  0
   -5.5794   -4.2662    3.0730 O   0  0  0  0  0  0
    6.5578    3.9784   -3.7482 O   0  0  0  0  0  0
   -6.7170   -3.7689    2.5272 C   0  0  0  0  0  0
    7.2570    3.6413   -4.8596 C   0  0  0  0  0  0
   -7.5477   -4.8770    1.9736 C   0  0  0  0  0  0
   -7.0235   -2.5836    2.4800 O   0  0  0  0  0  0
    7.2391    4.7647   -5.8386 C   0  0  0  0  0  0
    7.8288    2.5744   -5.0452 O   0  0  0  0  0  0
   -7.0543   -6.2871    2.0836 C   0  0  0  0  0  0
   -8.7112   -4.5615    1.3777 C   0  0  0  0  0  0
    6.2295    5.8602   -5.6795 C   0  0  0  0  0  0
    8.1258    4.7450   -6.8473 C   0  0  0  0  0  0
    5.8982   -0.5553    5.5209 H   0  0  0  0  0  0
    5.2017   -1.8780    4.5854 H   0  0  0  0  0  0
    4.9615   -1.8090    6.3348 H   0  0  0  0  0  0
    4.4544    1.0444    6.7734 H   0  0  0  0  0  0
    3.4006   -0.2262    7.4032 H   0  0  0  0  0  0
    2.7044    1.1343    6.5225 H   0  0  0  0  0  0
    3.3566   -3.1684    5.3256 H   0  0  0  0  0  0
    1.1565    0.5140    4.7473 H   0  0  0  0  0  0
    4.1192   -1.1145    2.6098 H   0  0  0  0  0  0
    3.8629    2.4851    5.0019 H   0  0  0  0  0  0
    1.2933   -4.4241    5.0667 H   0  0  0  0  0  0
   -0.8930   -0.7483    4.5047 H   0  0  0  0  0  0
    4.5891    0.2292    0.6439 H   0  0  0  0  0  0
    4.3183    3.8145    3.0157 H   0  0  0  0  0  0
   -2.2332   -2.3059    3.4571 H   0  0  0  0  0  0
   -2.5674   -2.2313    5.2174 H   0  0  0  0  0  0
    4.9202    1.7284   -0.9824 H   0  0  0  0  0  0
    6.4405    1.9352   -0.0598 H   0  0  0  0  0  0
   -3.0405   -4.6470    3.3784 H   0  0  0  0  0  0
    4.9790    4.0747   -1.7162 H   0  0  0  0  0  0
   -4.3824   -2.6173    2.7709 H   0  0  0  0  0  0
   -5.1886   -2.6716    4.3624 H   0  0  0  0  0  0
    5.8964    2.1572   -3.0583 H   0  0  0  0  0  0
    7.5461    2.5885   -2.5335 H   0  0  0  0  0  0
   -7.7380   -6.9995    1.6099 H   0  0  0  0  0  0
   -6.9491   -6.5805    3.1333 H   0  0  0  0  0  0
   -6.0830   -6.3936    1.5901 H   0  0  0  0  0  0
   -9.3518   -5.3283    0.9493 H   0  0  0  0  0  0
   -9.0589   -3.5361    1.2926 H   0  0  0  0  0  0
    6.3003    6.5972   -6.4863 H   0  0  0  0  0  0
    6.3766    6.3942   -4.7356 H   0  0  0  0  0  0
    5.2148    5.4503   -5.6995 H   0  0  0  0  0  0
    8.1524    5.5373   -7.5917 H   0  0  0  0  0  0
    8.8562    3.9484   -6.9636 H   0  0  0  0  0  0
   -4.3203   -5.1189    5.2444 H   0  0  0  0  0  0
    7.0684    5.0082   -1.3771 H   0  0  0  0  0  0
  1  2  1  0  0  0
  1  3  1  0  0  0
  1  4  1  0  0  0
  1  5  1  0  0  0
  2  6  2  0  0  0
  2  7  1  0  0  0
  3  8  2  0  0  0
  3  9  1  0  0  0
  4 38  1  0  0  0
  4 39  1  0  0  0
  4 40  1  0  0  0
  5 41  1  0  0  0
  5 42  1  0  0  0
  5 43  1  0  0  0
  6 10  1  0  0  0
  6 44  1  0  0  0
  7 11  2  0  0  0
  7 45  1  0  0  0
  8 12  1  0  0  0
  8 46  1  0  0  0
  9 13  2  0  0  0
  9 47  1  0  0  0
 10 14  2  0  0  0
 10 48  1  0  0  0
 11 14  1  0  0  0
 11 49  1  0  0  0
 12 15  2  0  0  0
 12 50  1  0  0  0
 13 15  1  0  0  0
 13 51  1  0  0  0
 14 16  1  0  0  0
 15 17  1  0  0  0
 16 18  1  0  0  0
 17 19  1  0  0  0
 18 20  1  0  0  0
 18 52  1  0  0  0
 18 53  1  0  0  0
 19 21  1  0  0  0
 19 54  1  0  0  0
 19 55  1  0  0  0
 20 22  1  0  0  0
 20 23  1  0  0  0
 20 56  1  0  0  0
 21 24  1  0  0  0
 21 25  1  0  0  0
 21 57  1  0  0  0
 22 26  1  0  0  0
 22 58  1  0  0  0
 22 59  1  0  0  0
 23 72  1  0  0  0
 24 27  1  0  0  0
 24 60  1  0  0  0
 24 61  1  0  0  0
 25 73  1  0  0  0
 26 28  1  0  0  0
 27 29  1  0  0  0
 28 30  1  0  0  0
 28 31  2  0  0  0
 29 32  1  0  0  0
 29 33  2  0  0  0
 30 34  1  0  0  0
 30 35  2  0  0  0
 32 36  1  0  0  0
 32 37  2  0  0  0
 34 62  1  0  0  0
 34 63  1  0  0  0
 34 64  1  0  0  0
 35 65  1  0  0  0
 35 66  1  0  0  0
 36 67  1  0  0  0
 36 68  1  0  0  0
 36 69  1  0  0  0
 37 70  1  0  0  0
 37 71  1  0  0  0
M  END
>  <Name>
tox-72

>  <substance>
Bisphenol A diglycidyl ether dimethacrylate

>  <CASRN>
1565-94-2

>  <from_NCI>
1

>  <RBA>
0.000000

>  <method>
hERa-FP,RUC,RUC

>  <chemical_class>
Acrylate

>  <set>
2

$$$$
tox-73
  Cerius2 12190218263D 1   1.00000                          
 Structure written by MMmdl.
 51 52  0  0  0  0  0  0  0  0999 V2000
    2.6646    2.0298   -1.5885 O   0  0  0  0  0  0
    2.6560    3.1027   -2.1828 C   0  0  0  0  0  0
    1.6077    3.6317   -2.9169 O   0  0  0  0  0  0
    0.4692    2.8251   -2.9331 C   0  0  0  0  0  0
   -0.4711    2.9430   -1.9166 C   0  0  0  0  0  0
   -1.6294    2.1652   -1.9697 C   0  0  0  0  0  0
   -1.8720    1.2761   -3.0411 C   0  0  0  0  0  0
   -0.9066    1.2028   -4.0627 C   0  0  0  0  0  0
    0.2569    1.9771   -4.0142 C   0  0  0  0  0  0
   -3.1767    0.4389   -3.0566 C   0  0  0  0  0  0
   -3.2853   -0.4255   -1.7742 C   0  0  0  0  0  0
   -4.3813   -0.3499   -0.8940 C   0  0  0  0  0  0
   -4.4451   -1.1509    0.2504 C   0  0  0  0  0  0
   -3.4033   -2.0280    0.5301 C   0  0  0  0  0  0
   -3.5023   -2.8622    1.6443 O   0  0  0  0  0  0
   -2.8283   -2.3907    2.7587 C   0  0  0  0  0  0
   -2.1971   -1.3429    2.8448 O   0  0  0  0  0  0
   -2.9832   -3.3693    3.8788 C   0  0  0  0  0  0
   -2.3559   -3.1126    5.0396 C   0  0  0  0  0  0
   -3.8260   -4.5918    3.6757 C   0  0  0  0  0  0
   -2.3150   -2.1476   -0.3258 C   0  0  0  0  0  0
   -2.2558   -1.3433   -1.4657 C   0  0  0  0  0  0
   -3.2800   -0.5361   -4.2604 C   0  0  0  0  0  0
   -4.3471    1.4431   -3.2349 C   0  0  0  0  0  0
    3.8294    4.0325   -2.1921 C   0  0  0  0  0  0
    3.8418    5.1852   -2.8842 C   0  0  0  0  0  0
    5.0041    3.5876   -1.3714 C   0  0  0  0  0  0
   -0.3124    3.6277   -1.0874 H   0  0  0  0  0  0
   -2.3518    2.2579   -1.1587 H   0  0  0  0  0  0
   -1.0368    0.5465   -4.9206 H   0  0  0  0  0  0
    0.9855    1.9122   -4.8187 H   0  0  0  0  0  0
   -5.2119    0.3278   -1.0785 H   0  0  0  0  0  0
   -5.3064   -1.0852    0.9110 H   0  0  0  0  0  0
   -2.4349   -3.7885    5.8870 H   0  0  0  0  0  0
   -1.7448   -2.2254    5.1851 H   0  0  0  0  0  0
   -3.8482   -5.2247    4.5696 H   0  0  0  0  0  0
   -3.4337   -5.2009    2.8546 H   0  0  0  0  0  0
   -4.8596   -4.3127    3.4455 H   0  0  0  0  0  0
   -1.5168   -2.8554   -0.1171 H   0  0  0  0  0  0
   -1.3904   -1.4385   -2.1215 H   0  0  0  0  0  0
   -4.2064   -1.1224   -4.2132 H   0  0  0  0  0  0
   -2.4498   -1.2514   -4.2934 H   0  0  0  0  0  0
   -3.2875    0.0020   -5.2160 H   0  0  0  0  0  0
   -5.3100    0.9273   -3.3324 H   0  0  0  0  0  0
   -4.2122    2.0477   -4.1409 H   0  0  0  0  0  0
   -4.4324    2.1415   -2.3942 H   0  0  0  0  0  0
    4.7108    5.8383   -2.8709 H   0  0  0  0  0  0
    3.0040    5.5248   -3.4860 H   0  0  0  0  0  0
    5.8268    4.3100   -1.4067 H   0  0  0  0  0  0
    5.3883    2.6304   -1.7394 H   0  0  0  0  0  0
    4.7152    3.4679   -0.3219 H   0  0  0  0  0  0
  1  2  2  0  0  0
  2  3  1  0  0  0
  2 25  1  0  0  0
  3  4  1  0  0  0
  4  5  2  0  0  0
  4  9  1  0  0  0
  5  6  1  0  0  0
  5 28  1  0  0  0
  6  7  2  0  0  0
  6 29  1  0  0  0
  7  8  1  0  0  0
  7 10  1  0  0  0
  8  9  2  0  0  0
  8 30  1  0  0  0
  9 31  1  0  0  0
 10 11  1  0  0  0
 10 23  1  0  0  0
 10 24  1  0  0  0
 11 12  2  0  0  0
 11 22  1  0  0  0
 12 13  1  0  0  0
 12 32  1  0  0  0
 13 14  2  0  0  0
 13 33  1  0  0  0
 14 15  1  0  0  0
 14 21  1  0  0  0
 15 16  1  0  0  0
 16 17  2  0  0  0
 16 18  1  0  0  0
 18 19  2  0  0  0
 18 20  1  0  0  0
 19 34  1  0  0  0
 19 35  1  0  0  0
 20 36  1  0  0  0
 20 37  1  0  0  0
 20 38  1  0  0  0
 21 22  2  0  0  0
 21 39  1  0  0  0
 22 40  1  0  0  0
 23 41  1  0  0  0
 23 42  1  0  0  0
 23 43  1  0  0  0
 24 44  1  0  0  0
 24 45  1  0  0  0
 24 46  1  0  0  0
 25 26  2  0  0  0
 25 27  1  0  0  0
 26 47  1  0  0  0
 26 48  1  0  0  0
 27 49  1  0  0  0
 27 50  1  0  0  0
 27 51  1  0  0  0
M  END
>  <Name>
tox-73

>  <substance>
Bisphenol A dimethacrylate

>  <CASRN>
3253-39-2

>  <from_NCI>
1

>  <RBA>
0.010000

>  <method>
RBC,RUC,RUC

>  <chemical_class>
Acrylate; Bisphenol

>  <set>
1

$$$$
tox-74
  Cerius2 12190218263D 1   1.00000                          
 Structure written by MMmdl.
 41 42  0  0  0  0  0  0  0  0999 V2000
    2.2967   -0.4422   -2.5234 C   0  0  0  0  0  0
    0.7510   -0.5472   -2.5333 C   0  0  0  0  0  0
    2.8308   -0.3397   -1.0728 C   0  0  0  0  0  0
    2.6626    0.7777   -3.4105 C   0  0  0  0  0  0
    3.0088   -1.6597   -3.1712 C   0  0  0  0  0  0
    0.0598   -1.6000   -3.1541 C   0  0  0  0  0  0
   -0.0203    0.4498   -1.9058 C   0  0  0  0  0  0
    3.6494    0.7119   -0.6312 C   0  0  0  0  0  0
    2.5031   -1.3377   -0.1360 C   0  0  0  0  0  0
   -1.3421   -1.6593   -3.1462 C   0  0  0  0  0  0
   -1.4173    0.3899   -1.8985 C   0  0  0  0  0  0
    4.1195    0.7688    0.6903 C   0  0  0  0  0  0
    2.9723   -1.2794    1.1802 C   0  0  0  0  0  0
   -2.0871   -0.6642   -2.5179 C   0  0  0  0  0  0
    3.7843   -0.2271    1.6032 C   0  0  0  0  0  0
   -3.4508   -0.6049   -2.4382 O   0  0  0  0  0  0
    4.1687   -0.2972    2.9115 O   0  0  0  0  0  0
    5.0311    0.7128    3.4256 C   0  0  0  0  0  0
    4.2912    1.8447    3.8685 O   0  0  0  0  0  0
   -4.1763   -1.6569   -3.0636 C   0  0  0  0  0  0
   -5.5704   -1.4244   -2.8668 O   0  0  0  0  0  0
    3.7481    0.8821   -3.5257 H   0  0  0  0  0  0
    2.2831    1.7211   -3.0009 H   0  0  0  0  0  0
    2.2405    0.6729   -4.4181 H   0  0  0  0  0  0
    4.0997   -1.5532   -3.1164 H   0  0  0  0  0  0
    2.7484   -1.7626   -4.2315 H   0  0  0  0  0  0
    2.7543   -2.6045   -2.6767 H   0  0  0  0  0  0
    0.5899   -2.4038   -3.6612 H   0  0  0  0  0  0
    0.4642    1.2892   -1.4071 H   0  0  0  0  0  0
    3.9460    1.5171   -1.3006 H   0  0  0  0  0  0
    1.8692   -2.1766   -0.4228 H   0  0  0  0  0  0
   -1.8103   -2.5041   -3.6448 H   0  0  0  0  0  0
   -1.9807    1.1779   -1.4012 H   0  0  0  0  0  0
    4.7465    1.6145    0.9574 H   0  0  0  0  0  0
    2.6956   -2.0689    1.8772 H   0  0  0  0  0  0
    5.8350    1.0010    2.7386 H   0  0  0  0  0  0
    5.5167    0.2890    4.3102 H   0  0  0  0  0  0
    4.2136    2.4209    3.0824 H   0  0  0  0  0  0
   -3.9410   -2.6170   -2.5927 H   0  0  0  0  0  0
   -3.9803   -1.6979   -4.1411 H   0  0  0  0  0  0
   -5.8142   -0.7991   -3.5804 H   0  0  0  0  0  0
  1  2  1  0  0  0
  1  3  1  0  0  0
  1  4  1  0  0  0
  1  5  1  0  0  0
  2  6  2  0  0  0
  2  7  1  0  0  0
  3  8  2  0  0  0
  3  9  1  0  0  0
  4 22  1  0  0  0
  4 23  1  0  0  0
  4 24  1  0  0  0
  5 25  1  0  0  0
  5 26  1  0  0  0
  5 27  1  0  0  0
  6 10  1  0  0  0
  6 28  1  0  0  0
  7 11  2  0  0  0
  7 29  1  0  0  0
  8 12  1  0  0  0
  8 30  1  0  0  0
  9 13  2  0  0  0
  9 31  1  0  0  0
 10 14  2  0  0  0
 10 32  1  0  0  0
 11 14  1  0  0  0
 11 33  1  0  0  0
 12 15  2  0  0  0
 12 34  1  0  0  0
 13 15  1  0  0  0
 13 35  1  0  0  0
 14 16  1  0  0  0
 15 17  1  0  0  0
 16 20  1  0  0  0
 17 18  1  0  0  0
 18 19  1  0  0  0
 18 36  1  0  0  0
 18 37  1  0  0  0
 19 38  1  0  0  0
 20 21  1  0  0  0
 20 39  1  0  0  0
 20 40  1  0  0  0
 21 41  1  0  0  0
M  END
>  <Name>
tox-74

>  <substance>
Bisphenol A ethoxylate

>  <CASRN>
68140-85-2

>  <from_NCI>
0

>  <RBA>
0.000000

>  <method>
RUC

>  <chemical_class>
Polyether

>  <set>
1

$$$$
tox-75
  Cerius2 12190218263D 1   1.00000                          
 Structure written by MMmdl.
 59 60  0  0  0  0  0  0  0  0999 V2000
    1.7859    1.5635   -2.6678 C   0  0  0  0  0  0
    0.2669    1.3374   -2.4789 C   0  0  0  0  0  0
    2.5443    1.4964   -1.3183 C   0  0  0  0  0  0
    1.9377    2.9249   -3.3951 C   0  0  0  0  0  0
    2.4606    0.5195   -3.5991 C   0  0  0  0  0  0
   -0.4702    0.4212   -3.2480 C   0  0  0  0  0  0
   -0.4430    2.1003   -1.5320 C   0  0  0  0  0  0
    3.3077    2.5631   -0.8202 C   0  0  0  0  0  0
    2.5021    0.3144   -0.5522 C   0  0  0  0  0  0
   -1.8557    0.2739   -3.0841 C   0  0  0  0  0  0
   -1.8236    1.9472   -1.3632 C   0  0  0  0  0  0
    4.0156    2.4420    0.3806 C   0  0  0  0  0  0
    3.2185    0.1910    0.6431 C   0  0  0  0  0  0
   -2.5385    1.0434   -2.1459 C   0  0  0  0  0  0
    3.9886    1.2528    1.1089 C   0  0  0  0  0  0
   -3.8821    0.9956   -1.8951 O   0  0  0  0  0  0
    4.7468    1.2583    2.2462 O   0  0  0  0  0  0
    5.8790    0.1887    4.0767 C   0  0  0  0  0  0
    6.0242   -1.0231    4.8371 O   0  0  0  0  0  0
    6.9300   -1.9138    4.3595 C   0  0  0  0  0  0
    6.9476   -3.0814    5.2650 C   0  0  0  0  0  0
    7.6117   -1.7886    3.3529 O   0  0  0  0  0  0
    7.7092   -4.1496    4.9993 C   0  0  0  0  0  0
   -4.6928    0.3173   -2.8602 C   0  0  0  0  0  0
   -6.1602    0.5949   -2.5417 C   0  0  0  0  0  0
   -7.0246    0.0266   -3.5396 O   0  0  0  0  0  0
   -7.4068   -1.2570   -3.3437 C   0  0  0  0  0  0
   -7.0711   -1.9759   -2.4105 O   0  0  0  0  0  0
   -8.3119   -1.7226   -4.4168 C   0  0  0  0  0  0
   -8.6530   -1.0127   -5.5006 C   0  0  0  0  0  0
    4.9004    0.0057    2.9194 C   0  0  0  0  0  0
    2.9879    3.1435   -3.6223 H   0  0  0  0  0  0
    1.5438    3.7598   -2.8050 H   0  0  0  0  0  0
    1.3972    2.9247   -4.3495 H   0  0  0  0  0  0
    3.5405    0.7020   -3.6786 H   0  0  0  0  0  0
    2.0540    0.5649   -4.6168 H   0  0  0  0  0  0
    2.3313   -0.5079   -3.2382 H   0  0  0  0  0  0
    0.0104   -0.2010   -4.0006 H   0  0  0  0  0  0
    0.0758    2.8293   -0.9099 H   0  0  0  0  0  0
    3.3809    3.5091   -1.3521 H   0  0  0  0  0  0
    1.9074   -0.5362   -0.8885 H   0  0  0  0  0  0
   -2.3641   -0.4576   -3.7075 H   0  0  0  0  0  0
   -2.3397    2.5517   -0.6188 H   0  0  0  0  0  0
    4.6009    3.2871    0.7381 H   0  0  0  0  0  0
    3.1474   -0.7502    1.1813 H   0  0  0  0  0  0
    6.8509    0.5524    3.7213 H   0  0  0  0  0  0
    5.5046    0.9604    4.7593 H   0  0  0  0  0  0
    6.3226   -3.0395    6.1498 H   0  0  0  0  0  0
    7.7169   -5.0037    5.6704 H   0  0  0  0  0  0
    8.3391   -4.2056    4.1164 H   0  0  0  0  0  0
   -4.5036   -0.7614   -2.8236 H   0  0  0  0  0  0
   -4.4806    0.6793   -3.8744 H   0  0  0  0  0  0
   -6.3338    1.6763   -2.5400 H   0  0  0  0  0  0
   -6.4246    0.2495   -1.5335 H   0  0  0  0  0  0
   -8.7049   -2.7231   -4.2728 H   0  0  0  0  0  0
   -9.3230   -1.4356   -6.2438 H   0  0  0  0  0  0
   -8.2807   -0.0091   -5.6867 H   0  0  0  0  0  0
    5.2879   -0.7552    2.2309 H   0  0  0  0  0  0
    3.9363   -0.3347    3.3160 H   0  0  0  0  0  0
  1  2  1  0  0  0
  1  3  1  0  0  0
  1  4  1  0  0  0
  1  5  1  0  0  0
  2  6  2  0  0  0
  2  7  1  0  0  0
  3  8  2  0  0  0
  3  9  1  0  0  0
  4 32  1  0  0  0
  4 33  1  0  0  0
  4 34  1  0  0  0
  5 35  1  0  0  0
  5 36  1  0  0  0
  5 37  1  0  0  0
  6 10  1  0  0  0
  6 38  1  0  0  0
  7 11  2  0  0  0
  7 39  1  0  0  0
  8 12  1  0  0  0
  8 40  1  0  0  0
  9 13  2  0  0  0
  9 41  1  0  0  0
 10 14  2  0  0  0
 10 42  1  0  0  0
 11 14  1  0  0  0
 11 43  1  0  0  0
 12 15  2  0  0  0
 12 44  1  0  0  0
 13 15  1  0  0  0
 13 45  1  0  0  0
 14 16  1  0  0  0
 15 17  1  0  0  0
 16 24  1  0  0  0
 17 31  1  0  0  0
 18 19  1  0  0  0
 18 31  1  0  0  0
 18 46  1  0  0  0
 18 47  1  0  0  0
 19 20  1  0  0  0
 20 21  1  0  0  0
 20 22  2  0  0  0
 21 23  2  0  0  0
 21 48  1  0  0  0
 23 49  1  0  0  0
 23 50  1  0  0  0
 24 25  1  0  0  0
 24 51  1  0  0  0
 24 52  1  0  0  0
 25 26  1  0  0  0
 25 53  1  0  0  0
 25 54  1  0  0  0
 26 27  1  0  0  0
 27 28  2  0  0  0
 27 29  1  0  0  0
 29 30  2  0  0  0
 29 55  1  0  0  0
 30 56  1  0  0  0
 30 57  1  0  0  0
 31 58  1  0  0  0
 31 59  1  0  0  0
M  END
>  <Name>
tox-75

>  <substance>
Bisphenol A ethoxylate diacrylate

>  <CASRN>
64401-02-1

>  <from_NCI>
0

>  <RBA>
0.000500

>  <method>
RUC

>  <chemical_class>
Acrylate

>  <set>
0

$$$$
tox-76
  Cerius2 12190218263D 1   1.00000                          
 Structure written by MMmdl.
 79 82  0  0  0  0  0  0  0  0999 V2000
   -0.3756    2.3565   -3.0681 C   0  0  0  0  0  0
   -1.4394    1.2534   -2.8411 C   0  0  0  0  0  0
    0.8274    2.1641   -2.1103 C   0  0  0  0  0  0
   -0.9095    3.7967   -2.8375 C   0  0  0  0  0  0
    0.0122    2.2950   -4.5704 C   0  0  0  0  0  0
   -1.0692   -0.1021   -2.9463 C   0  0  0  0  0  0
   -2.7849    1.5339   -2.5563 C   0  0  0  0  0  0
    0.6198    2.1911   -0.7173 C   0  0  0  0  0  0
    2.1402    1.9564   -2.5611 C   0  0  0  0  0  0
   -2.0026   -1.1294   -2.7784 C   0  0  0  0  0  0
   -3.7214    0.5045   -2.3882 C   0  0  0  0  0  0
    1.6761    2.0269    0.1872 C   0  0  0  0  0  0
    3.1953    1.7868   -1.6562 C   0  0  0  0  0  0
   -3.3397   -0.8383   -2.4898 C   0  0  0  0  0  0
    2.9714    1.8261   -0.2803 C   0  0  0  0  0  0
   -4.3459   -1.9585   -2.3737 C   0  0  0  0  0  0
    4.0850    1.6435    0.4920 O   0  0  0  0  0  0
  -10.0782   -4.0990    1.0588 O   0  0  0  0  0  0
   -9.1835   -2.9869    1.0658 C   0  0  0  0  0  0
   -8.5500   -2.8509    2.4615 C   0  0  0  0  0  0
   -9.5407   -2.5305    3.4602 O   0  0  0  0  0  0
   -7.4928   -1.7481    2.4249 C   0  0  0  0  0  0
   -6.7985   -1.7109    3.6901 O   0  0  0  0  0  0
   -6.4874   -1.9383    1.2796 C   0  0  0  0  0  0
   -5.6807   -0.7433    1.2566 O   0  0  0  0  0  0
   -7.2259   -2.1946   -0.0473 C   0  0  0  0  0  0
   -8.1920   -3.2548    0.0844 O   0  0  0  0  0  0
   -6.2376   -2.6212   -1.1433 C   0  0  0  0  0  0
   -6.3122   -3.6548   -1.8035 O   0  0  0  0  0  0
   -5.2733   -1.6706   -1.3161 O   0  0  0  0  0  0
    6.8988   -0.4512    1.7594 O   0  0  0  0  0  0
    7.7747    0.5082    1.1889 C   0  0  0  0  0  0
    8.9639    0.8100    2.1231 C   0  0  0  0  0  0
    9.9920    1.4903    1.3777 O   0  0  0  0  0  0
    8.5299    1.6438    3.3437 C   0  0  0  0  0  0
    7.9755    0.8002    4.3677 O   0  0  0  0  0  0
    7.5757    2.8012    2.9764 C   0  0  0  0  0  0
    8.3671    3.8923    2.4552 O   0  0  0  0  0  0
    6.5003    2.4012    1.9406 C   0  0  0  0  0  0
    7.0435    1.6800    0.8358 O   0  0  0  0  0  0
    5.2761    1.7378    2.6062 C   0  0  0  0  0  0
    5.3571    1.1666    3.7013 O   0  0  0  0  0  0
    3.9382    1.8754    1.8874 C   0  0  0  0  0  0
   -0.1115    4.5376   -2.9731 H   0  0  0  0  0  0
   -1.3118    3.9393   -1.8276 H   0  0  0  0  0  0
   -1.7077    4.0505   -3.5459 H   0  0  0  0  0  0
    0.7293    3.0819   -4.8330 H   0  0  0  0  0  0
   -0.8679    2.4320   -5.2112 H   0  0  0  0  0  0
    0.4613    1.3343   -4.8482 H   0  0  0  0  0  0
   -0.0371   -0.3739   -3.1683 H   0  0  0  0  0  0
   -3.1447    2.5571   -2.4676 H   0  0  0  0  0  0
   -0.3838    2.3338   -0.3169 H   0  0  0  0  0  0
    2.3796    1.9176   -3.6213 H   0  0  0  0  0  0
   -1.6722   -2.1625   -2.8831 H   0  0  0  0  0  0
   -4.7586    0.7684   -2.1841 H   0  0  0  0  0  0
    1.4409    2.0534    1.2474 H   0  0  0  0  0  0
    4.2028    1.6270   -2.0382 H   0  0  0  0  0  0
   -3.8324   -2.8996   -2.1429 H   0  0  0  0  0  0
   -4.8821   -2.0519   -3.3258 H   0  0  0  0  0  0
  -10.7287   -3.8906    0.3571 H   0  0  0  0  0  0
   -9.7579   -2.0895    0.8038 H   0  0  0  0  0  0
   -8.0986   -3.8026    2.7672 H   0  0  0  0  0  0
   -9.0224   -2.3524    4.2762 H   0  0  0  0  0  0
   -7.9838   -0.7700    2.3375 H   0  0  0  0  0  0
   -6.0690   -1.0650    3.5565 H   0  0  0  0  0  0
   -5.8156   -2.7712    1.5203 H   0  0  0  0  0  0
   -5.0416   -0.8365    0.5173 H   0  0  0  0  0  0
   -7.7354   -1.2934   -0.4106 H   0  0  0  0  0  0
    6.5940   -1.0010    1.0085 H   0  0  0  0  0  0
    8.1685    0.0935    0.2534 H   0  0  0  0  0  0
    9.3891   -0.1412    2.4663 H   0  0  0  0  0  0
   10.7483    1.6049    1.9920 H   0  0  0  0  0  0
    9.4322    2.0812    3.7894 H   0  0  0  0  0  0
    7.0701    0.5372    4.0823 H   0  0  0  0  0  0
    7.0966    3.1778    3.8884 H   0  0  0  0  0  0
    7.7632    4.6585    2.3518 H   0  0  0  0  0  0
    6.1152    3.3357    1.5116 H   0  0  0  0  0  0
    3.2591    1.1316    2.3200 H   0  0  0  0  0  0
    3.5709    2.8897    2.0797 H   0  0  0  0  0  0
  1  2  1  0  0  0
  1  3  1  0  0  0
  1  4  1  0  0  0
  1  5  1  0  0  0
  2  6  2  0  0  0
  2  7  1  0  0  0
  3  8  2  0  0  0
  3  9  1  0  0  0
  4 44  1  0  0  0
  4 45  1  0  0  0
  4 46  1  0  0  0
  5 47  1  0  0  0
  5 48  1  0  0  0
  5 49  1  0  0  0
  6 10  1  0  0  0
  6 50  1  0  0  0
  7 11  2  0  0  0
  7 51  1  0  0  0
  8 12  1  0  0  0
  8 52  1  0  0  0
  9 13  2  0  0  0
  9 53  1  0  0  0
 10 14  2  0  0  0
 10 54  1  0  0  0
 11 14  1  0  0  0
 11 55  1  0  0  0
 12 15  2  0  0  0
 12 56  1  0  0  0
 13 15  1  0  0  0
 13 57  1  0  0  0
 14 16  1  0  0  0
 15 17  1  0  0  0
 16 30  1  0  0  0
 16 58  1  0  0  0
 16 59  1  0  0  0
 17 43  1  0  0  0
 18 19  1  0  0  0
 18 60  1  0  0  0
 19 20  1  0  0  0
 19 27  1  0  0  0
 19 61  1  0  0  0
 20 21  1  0  0  0
 20 22  1  0  0  0
 20 62  1  0  0  0
 21 63  1  0  0  0
 22 23  1  0  0  0
 22 24  1  0  0  0
 22 64  1  0  0  0
 23 65  1  0  0  0
 24 25  1  0  0  0
 24 26  1  0  0  0
 24 66  1  0  0  0
 25 67  1  0  0  0
 26 27  1  0  0  0
 26 28  1  0  0  0
 26 68  1  0  0  0
 28 29  2  0  0  0
 28 30  1  0  0  0
 31 32  1  0  0  0
 31 69  1  0  0  0
 32 33  1  0  0  0
 32 40  1  0  0  0
 32 70  1  0  0  0
 33 34  1  0  0  0
 33 35  1  0  0  0
 33 71  1  0  0  0
 34 72  1  0  0  0
 35 36  1  0  0  0
 35 37  1  0  0  0
 35 73  1  0  0  0
 36 74  1  0  0  0
 37 38  1  0  0  0
 37 39  1  0  0  0
 37 75  1  0  0  0
 38 76  1  0  0  0
 39 40  1  0  0  0
 39 41  1  0  0  0
 39 77  1  0  0  0
 41 42  2  0  0  0
 41 43  1  0  0  0
 43 78  1  0  0  0
 43 79  1  0  0  0
M  END
>  <Name>
tox-76

>  <substance>
Bisphenol A glucuronide

>  <CASRN>
0.000000

>  <from_NCI>
0

>  <RBA>
0.000000

>  <method>
MUC

>  <chemical_class>
Bisphenol; Glucuronide

>  <set>
1

$$$$
tox-77
  Cerius2 12190218263D 1   1.00000                          
 Structure written by MMmdl.
 53 54  0  0  0  0  0  0  0  0999 V2000
    3.9305   -0.6863   -4.1663 C   0  0  0  0  0  0
    2.4043   -0.5986   -4.4177 C   0  0  0  0  0  0
    4.2586   -0.4282   -2.6743 C   0  0  0  0  0  0
    4.5963    0.3271   -5.1352 C   0  0  0  0  0  0
    4.5419   -2.0683   -4.5200 C   0  0  0  0  0  0
    1.6658   -1.6375   -5.0036 C   0  0  0  0  0  0
    1.7033    0.5712   -4.0613 C   0  0  0  0  0  0
    5.1526    0.5660   -2.2497 C   0  0  0  0  0  0
    3.6536   -1.2212   -1.6783 C   0  0  0  0  0  0
    0.2879   -1.5096   -5.2187 C   0  0  0  0  0  0
    0.3247    0.6977   -4.2772 C   0  0  0  0  0  0
    5.4241    0.7575   -0.8892 C   0  0  0  0  0  0
    3.9263   -1.0285   -0.3176 C   0  0  0  0  0  0
   -0.3899   -0.3448   -4.8587 C   0  0  0  0  0  0
    4.8152   -0.0360    0.0830 C   0  0  0  0  0  0
   -1.7307   -0.3534   -5.1256 O   0  0  0  0  0  0
    5.1699    0.2573    1.3703 O   0  0  0  0  0  0
    4.5766   -0.5369    2.4043 C   0  0  0  0  0  0
    5.1170   -0.0419    3.7400 C   0  0  0  0  0  0
    4.5427   -0.8274    4.9063 C   0  0  0  0  0  0
    5.0879   -0.3158    6.1221 O   0  0  0  0  0  0
   -2.4686    0.8254   -4.7824 C   0  0  0  0  0  0
   -3.9231    0.5947   -5.1732 C   0  0  0  0  0  0
   -4.7917    1.7976   -4.8483 C   0  0  0  0  0  0
   -6.1355    1.5172   -5.2392 O   0  0  0  0  0  0
    5.6906    0.2764   -5.0832 H   0  0  0  0  0  0
    4.3045    1.3623   -4.9222 H   0  0  0  0  0  0
    4.3136    0.1219   -6.1755 H   0  0  0  0  0  0
    5.6168   -2.0918   -4.3000 H   0  0  0  0  0  0
    4.4267   -2.3001   -5.5857 H   0  0  0  0  0  0
    4.0811   -2.8863   -3.9538 H   0  0  0  0  0  0
    2.1365   -2.5694   -5.3087 H   0  0  0  0  0  0
    2.2310    1.4071   -3.6012 H   0  0  0  0  0  0
    5.6613    1.2153   -2.9587 H   0  0  0  0  0  0
    2.9500   -2.0065   -1.9560 H   0  0  0  0  0  0
   -0.2561   -2.3352   -5.6754 H   0  0  0  0  0  0
   -0.1511    1.6268   -3.9758 H   0  0  0  0  0  0
    6.1229    1.5386   -0.5931 H   0  0  0  0  0  0
    3.4225   -1.6751    0.3955 H   0  0  0  0  0  0
    4.8471   -1.5909    2.2683 H   0  0  0  0  0  0
    3.4863   -0.4216    2.3852 H   0  0  0  0  0  0
    4.8984    1.0268    3.8616 H   0  0  0  0  0  0
    6.2129   -0.1029    3.7482 H   0  0  0  0  0  0
    4.8027   -1.8880    4.8304 H   0  0  0  0  0  0
    3.4534   -0.7279    4.9473 H   0  0  0  0  0  0
    4.6868   -0.8549    6.8385 H   0  0  0  0  0  0
   -2.0742    1.6876   -5.3334 H   0  0  0  0  0  0
   -2.4040    1.0059   -3.7027 H   0  0  0  0  0  0
   -4.3116   -0.2981   -4.6668 H   0  0  0  0  0  0
   -3.9922    0.3583   -6.2428 H   0  0  0  0  0  0
   -4.4518    2.6849   -5.3920 H   0  0  0  0  0  0
   -4.7814    2.0100   -3.7745 H   0  0  0  0  0  0
   -6.6504    2.3212   -5.0090 H   0  0  0  0  0  0
  1  2  1  0  0  0
  1  3  1  0  0  0
  1  4  1  0  0  0
  1  5  1  0  0  0
  2  6  2  0  0  0
  2  7  1  0  0  0
  3  8  2  0  0  0
  3  9  1  0  0  0
  4 26  1  0  0  0
  4 27  1  0  0  0
  4 28  1  0  0  0
  5 29  1  0  0  0
  5 30  1  0  0  0
  5 31  1  0  0  0
  6 10  1  0  0  0
  6 32  1  0  0  0
  7 11  2  0  0  0
  7 33  1  0  0  0
  8 12  1  0  0  0
  8 34  1  0  0  0
  9 13  2  0  0  0
  9 35  1  0  0  0
 10 14  2  0  0  0
 10 36  1  0  0  0
 11 14  1  0  0  0
 11 37  1  0  0  0
 12 15  2  0  0  0
 12 38  1  0  0  0
 13 15  1  0  0  0
 13 39  1  0  0  0
 14 16  1  0  0  0
 15 17  1  0  0  0
 16 22  1  0  0  0
 17 18  1  0  0  0
 18 19  1  0  0  0
 18 40  1  0  0  0
 18 41  1  0  0  0
 19 20  1  0  0  0
 19 42  1  0  0  0
 19 43  1  0  0  0
 20 21  1  0  0  0
 20 44  1  0  0  0
 20 45  1  0  0  0
 21 46  1  0  0  0
 22 23  1  0  0  0
 22 47  1  0  0  0
 22 48  1  0  0  0
 23 24  1  0  0  0
 23 49  1  0  0  0
 23 50  1  0  0  0
 24 25  1  0  0  0
 24 51  1  0  0  0
 24 52  1  0  0  0
 25 53  1  0  0  0
M  END
>  <Name>
tox-77

>  <substance>
Bisphenol A propoxylate

>  <CASRN>
37353-75-6

>  <from_NCI>
0

>  <RBA>
0.000000

>  <method>
RUC

>  <chemical_class>
Bisphenol

>  <set>
2

$$$$
tox-78
  Cerius2 12190218263D 1   1.00000                          
 Structure written by MMmdl.
 33 34  0  0  0  0  0  0  0  0999 V2000
   -0.1423    2.8766   -2.3141 F   0  0  0  0  0  0
    0.4806    2.3919   -1.2085 C   0  0  0  0  0  0
   -0.2091    2.8920   -0.1461 F   0  0  0  0  0  0
    1.6980    2.9980   -1.1705 F   0  0  0  0  0  0
    0.5786    0.8574   -1.1870 C   0  0  0  0  0  0
   -0.7928    0.1195   -1.1896 C   0  0  0  0  0  0
   -2.0247    0.7788   -1.2710 C   0  0  0  0  0  0
   -3.2372    0.0598   -1.2865 C   0  0  0  0  0  0
   -3.3105   -1.3424   -1.2219 C   0  0  0  0  0  0
   -4.4115   -1.9784   -1.2392 O   0  0  0  0  0  0
   -2.0617   -1.9797   -1.1351 C   0  0  0  0  0  0
   -0.8391   -1.2824   -1.1182 C   0  0  0  0  0  0
    1.4072    0.4513    0.0676 C   0  0  0  0  0  0
    2.7035   -0.0723    0.0009 C   0  0  0  0  0  0
    3.4157   -0.4078    1.1703 C   0  0  0  0  0  0
    2.8983   -0.2505    2.4678 C   0  0  0  0  0  0
    3.5531   -0.5551    3.5144 O   0  0  0  0  0  0
    1.5946    0.2710    2.5072 C   0  0  0  0  0  0
    0.8651    0.6130    1.3530 C   0  0  0  0  0  0
    1.2688    0.5708   -2.5309 C   0  0  0  0  0  0
    1.5707   -0.7464   -2.6993 F   0  0  0  0  0  0
    2.4399    1.2410   -2.6890 F   0  0  0  0  0  0
    0.4990    0.9078   -3.6008 F   0  0  0  0  0  0
   -2.1007    1.8631   -1.3279 H   0  0  0  0  0  0
   -4.1611    0.6429   -1.3537 H   0  0  0  0  0  0
   -2.0157   -3.0712   -1.0759 H   0  0  0  0  0  0
    0.0776   -1.8686   -1.0428 H   0  0  0  0  0  0
    3.2145   -0.2395   -0.9454 H   0  0  0  0  0  0
    4.4252   -0.8103    1.0403 H   0  0  0  0  0  0
    1.1042    0.4257    3.4729 H   0  0  0  0  0  0
   -0.1433    1.0059    1.4889 H   0  0  0  0  0  0
   -4.2574   -2.8130   -1.1921 H   0  0  0  0  0  0
    3.0805   -0.3919    4.2018 H   0  0  0  0  0  0
  1  2  1  0  0  0
  2  3  1  0  0  0
  2  4  1  0  0  0
  2  5  1  0  0  0
  5  6  1  0  0  0
  5 13  1  0  0  0
  5 20  1  0  0  0
  6  7  2  0  0  0
  6 12  1  0  0  0
  7  8  1  0  0  0
  7 24  1  0  0  0
  8  9  2  0  0  0
  8 25  1  0  0  0
  9 10  1  0  0  0
  9 11  1  0  0  0
 10 32  1  0  0  0
 11 12  2  0  0  0
 11 26  1  0  0  0
 12 27  1  0  0  0
 13 14  2  0  0  0
 13 19  1  0  0  0
 14 15  1  0  0  0
 14 28  1  0  0  0
 15 16  2  0  0  0
 15 29  1  0  0  0
 16 17  1  0  0  0
 16 18  1  0  0  0
 17 33  1  0  0  0
 18 19  2  0  0  0
 18 30  1  0  0  0
 19 31  1  0  0  0
 20 21  1  0  0  0
 20 22  1  0  0  0
 20 23  1  0  0  0
M  END
>  <Name>
tox-78

>  <substance>
Bisphenol AF

>  <CASRN>
1478-61-1

>  <from_NCI>
1

>  <RBA>
1.000000

>  <method>
RUC

>  <chemical_class>
Diphenolalkane; Bisphenol

>  <set>
1

$$$$
tox-79
  Cerius2 12190218263D 1   1.00000                          
 Structure written by MMmdl.
 36 37  0  0  0  0  0  0  0  0999 V2000
    1.0120    2.4772    1.2589 C   0  0  0  0  0  0
    1.0575    0.9216    1.2020 C   0  0  0  0  0  0
   -0.3649    0.2900    1.1544 C   0  0  0  0  0  0
   -1.5407    1.0275    1.3294 C   0  0  0  0  0  0
   -2.8057    0.4054    1.3016 C   0  0  0  0  0  0
   -2.9882   -0.9748    1.1060 C   0  0  0  0  0  0
   -4.1348   -1.5244    1.0840 O   0  0  0  0  0  0
   -1.7925   -1.6937    0.9395 C   0  0  0  0  0  0
   -0.5198   -1.0915    0.9638 C   0  0  0  0  0  0
    1.8482    0.5296   -0.0768 C   0  0  0  0  0  0
    1.4460    1.0116   -1.3325 C   0  0  0  0  0  0
    2.1392    0.6742   -2.5115 C   0  0  0  0  0  0
    3.2640   -0.1667   -2.5297 C   0  0  0  0  0  0
    3.8880   -0.4656   -3.5968 O   0  0  0  0  0  0
    3.6344   -0.6544   -1.2647 C   0  0  0  0  0  0
    2.9530   -0.3280   -0.0736 C   0  0  0  0  0  0
    1.6945    0.4234    2.5519 C   0  0  0  0  0  0
    2.9824    1.1166    2.9981 C   0  0  0  0  0  0
    2.0149    2.9119    1.1684 H   0  0  0  0  0  0
    0.5833    2.8310    2.2044 H   0  0  0  0  0  0
    0.4110    2.9122    0.4521 H   0  0  0  0  0  0
   -1.5205    2.1020    1.4984 H   0  0  0  0  0  0
   -3.6795    1.0483    1.4447 H   0  0  0  0  0  0
   -1.8301   -2.7758    0.7832 H   0  0  0  0  0  0
    0.3521   -1.7314    0.8294 H   0  0  0  0  0  0
    0.5723    1.6562   -1.4241 H   0  0  0  0  0  0
    1.7644    1.0953   -3.4490 H   0  0  0  0  0  0
    4.4932   -1.3269   -1.1780 H   0  0  0  0  0  0
    3.3234   -0.7773    0.8447 H   0  0  0  0  0  0
    1.8739   -0.6588    2.5176 H   0  0  0  0  0  0
    0.9663    0.5664    3.3637 H   0  0  0  0  0  0
    3.3940    0.6015    3.8726 H   0  0  0  0  0  0
    2.7945    2.1529    3.2949 H   0  0  0  0  0  0
    3.7484    1.1164    2.2191 H   0  0  0  0  0  0
   -4.0461   -2.3599    0.9552 H   0  0  0  0  0  0
    4.5369   -0.9820   -3.4104 H   0  0  0  0  0  0
  1  2  1  0  0  0
  1 19  1  0  0  0
  1 20  1  0  0  0
  1 21  1  0  0  0
  2  3  1  0  0  0
  2 10  1  0  0  0
  2 17  1  0  0  0
  3  4  2  0  0  0
  3  9  1  0  0  0
  4  5  1  0  0  0
  4 22  1  0  0  0
  5  6  2  0  0  0
  5 23  1  0  0  0
  6  7  1  0  0  0
  6  8  1  0  0  0
  7 35  1  0  0  0
  8  9  2  0  0  0
  8 24  1  0  0  0
  9 25  1  0  0  0
 10 11  2  0  0  0
 10 16  1  0  0  0
 11 12  1  0  0  0
 11 26  1  0  0  0
 12 13  2  0  0  0
 12 27  1  0  0  0
 13 14  1  0  0  0
 13 15  1  0  0  0
 14 36  1  0  0  0
 15 16  2  0  0  0
 15 28  1  0  0  0
 16 29  1  0  0  0
 17 18  1  0  0  0
 17 30  1  0  0  0
 17 31  1  0  0  0
 18 32  1  0  0  0
 18 33  1  0  0  0
 18 34  1  0  0  0
M  END
>  <Name>
tox-79

>  <substance>
Bisphenol B

>  <CASRN>
77-40-7

>  <from_NCI>
1

>  <RBA>
0.100000

>  <method>
RUC,RUC

>  <chemical_class>
Diphenolalkane; Bisphenol

>  <set>
1

$$$$
tox-80
  Cerius2 12190218263D 1   1.00000                          
 Structure written by MMmdl.
 39 40  0  0  0  0  0  0  0  0999 V2000
   -1.7071    1.0318    0.6594 C   0  0  0  0  0  0
   -1.5758   -0.4742    0.3222 C   0  0  0  0  0  0
   -0.3292    1.7381    0.6221 C   0  0  0  0  0  0
   -2.6282    1.8103   -0.3195 C   0  0  0  0  0  0
   -2.4076    1.1141    2.0437 C   0  0  0  0  0  0
   -2.2958   -1.1013   -0.7021 C   0  0  0  0  0  0
   -0.7199   -1.2901    1.0704 C   0  0  0  0  0  0
    0.4582    1.6912   -0.5401 C   0  0  0  0  0  0
    0.1923    2.4593    1.6961 C   0  0  0  0  0  0
   -2.1710   -2.4901   -0.9754 C   0  0  0  0  0  0
   -0.5968   -2.6644    0.8000 C   0  0  0  0  0  0
    1.7184    2.3361   -0.6332 C   0  0  0  0  0  0
    1.4430    3.0988    1.6032 C   0  0  0  0  0  0
   -1.3057   -3.3296   -0.2207 C   0  0  0  0  0  0
   -3.0124   -3.0444   -2.1139 C   0  0  0  0  0  0
    2.2603    3.0741    0.4539 C   0  0  0  0  0  0
    2.4637    2.2029   -1.9505 C   0  0  0  0  0  0
   -1.1548   -4.5811   -0.4171 O   0  0  0  0  0  0
    3.3843    3.6771    0.4343 O   0  0  0  0  0  0
   -2.6712    2.8752   -0.0579 H   0  0  0  0  0  0
   -3.6570    1.4311   -0.2943 H   0  0  0  0  0  0
   -2.2799    1.7490   -1.3573 H   0  0  0  0  0  0
   -2.6182    2.1519    2.3289 H   0  0  0  0  0  0
   -1.8039    0.6690    2.8433 H   0  0  0  0  0  0
   -3.3672    0.5820    2.0322 H   0  0  0  0  0  0
   -2.9821   -0.5232   -1.3187 H   0  0  0  0  0  0
   -0.1269   -0.8696    1.8826 H   0  0  0  0  0  0
    0.0895    1.1357   -1.4040 H   0  0  0  0  0  0
   -0.3477    2.5544    2.6356 H   0  0  0  0  0  0
    0.0943   -3.2323    1.4308 H   0  0  0  0  0  0
    1.7835    3.6454    2.4887 H   0  0  0  0  0  0
   -2.3662   -3.4854   -2.8798 H   0  0  0  0  0  0
   -3.6092   -2.2635   -2.5967 H   0  0  0  0  0  0
   -3.7049   -3.8028   -1.7344 H   0  0  0  0  0  0
    3.4298    1.7140   -1.7885 H   0  0  0  0  0  0
    2.6204    3.1909   -2.3956 H   0  0  0  0  0  0
    1.9056    1.5993   -2.6740 H   0  0  0  0  0  0
   -0.5939   -4.8900    0.1419 H   0  0  0  0  0  0
    3.5163    4.0548    1.1843 H   0  0  0  0  0  0
  1  2  1  0  0  0
  1  3  1  0  0  0
  1  4  1  0  0  0
  1  5  1  0  0  0
  2  6  2  0  0  0
  2  7  1  0  0  0
  3  8  2  0  0  0
  3  9  1  0  0  0
  4 20  1  0  0  0
  4 21  1  0  0  0
  4 22  1  0  0  0
  5 23  1  0  0  0
  5 24  1  0  0  0
  5 25  1  0  0  0
  6 10  1  0  0  0
  6 26  1  0  0  0
  7 11  2  0  0  0
  7 27  1  0  0  0
  8 12  1  0  0  0
  8 28  1  0  0  0
  9 13  2  0  0  0
  9 29  1  0  0  0
 10 14  2  0  0  0
 10 15  1  0  0  0
 11 14  1  0  0  0
 11 30  1  0  0  0
 12 16  2  0  0  0
 12 17  1  0  0  0
 13 16  1  0  0  0
 13 31  1  0  0  0
 14 18  1  0  0  0
 15 32  1  0  0  0
 15 33  1  0  0  0
 15 34  1  0  0  0
 16 19  1  0  0  0
 17 35  1  0  0  0
 17 36  1  0  0  0
 17 37  1  0  0  0
 18 38  1  0  0  0
 19 39  1  0  0  0
M  END
>  <Name>
tox-80

>  <substance>
Bisphenol C

>  <CASRN>
79-97-0

>  <from_NCI>
1

>  <RBA>
0.300000

>  <method>
RUC

>  <chemical_class>
Diphenolalkane; Bisphenol

>  <set>
1

$$$$
tox-81
  Cerius2 12190218263D 1   1.00000                          
 Structure written by MMmdl.
 28 29  0  0  0  0  0  0  0  0999 V2000
    4.8612    1.9757    0.0959 O   0  0  0  0  0  0
    3.7629    1.3349    0.1170 C   0  0  0  0  0  0
    2.9750    1.2108    1.2785 C   0  0  0  0  0  0
    1.7587    0.5057    1.3134 C   0  0  0  0  0  0
    1.2733   -0.1180    0.1651 C   0  0  0  0  0  0
    2.0202   -0.0187   -1.0080 C   0  0  0  0  0  0
    3.2338    0.6917   -1.0195 C   0  0  0  0  0  0
   -0.0119   -0.8606    0.1900 C   0  0  0  0  0  0
   -1.2907   -0.1422   -0.0388 C   0  0  0  0  0  0
   -2.0325    0.3583    1.0304 C   0  0  0  0  0  0
   -3.2399    1.0412    0.7992 C   0  0  0  0  0  0
   -3.7675    1.2627   -0.4883 C   0  0  0  0  0  0
   -4.8602    1.8823   -0.6867 O   0  0  0  0  0  0
   -2.9849    0.7425   -1.5381 C   0  0  0  0  0  0
   -1.7747    0.0568   -1.3307 C   0  0  0  0  0  0
   -0.0177   -2.1951    0.4207 C   0  0  0  0  0  0
   -1.4771   -3.1487    0.4573 Cl  0  0  0  0  0  0
    1.4335   -3.1180    0.7081 Cl  0  0  0  0  0  0
    3.3086    1.6793    2.2089 H   0  0  0  0  0  0
    1.2049    0.4549    2.2493 H   0  0  0  0  0  0
    1.6751   -0.4887   -1.9275 H   0  0  0  0  0  0
    3.7788    0.7360   -1.9669 H   0  0  0  0  0  0
   -1.6880    0.2272    2.0548 H   0  0  0  0  0  0
   -3.7811    1.4112    1.6749 H   0  0  0  0  0  0
   -3.3177    0.8685   -2.5725 H   0  0  0  0  0  0
   -1.2244   -0.3151   -2.1934 H   0  0  0  0  0  0
    5.1935    1.9426   -0.6857 H   0  0  0  0  0  0
   -5.0176    1.9190   -1.5212 H   0  0  0  0  0  0
  1  2  1  0  0  0
  1 27  1  0  0  0
  2  3  2  0  0  0
  2  7  1  0  0  0
  3  4  1  0  0  0
  3 19  1  0  0  0
  4  5  2  0  0  0
  4 20  1  0  0  0
  5  6  1  0  0  0
  5  8  1  0  0  0
  6  7  2  0  0  0
  6 21  1  0  0  0
  7 22  1  0  0  0
  8  9  1  0  0  0
  8 16  2  0  0  0
  9 10  2  0  0  0
  9 15  1  0  0  0
 10 11  1  0  0  0
 10 23  1  0  0  0
 11 12  2  0  0  0
 11 24  1  0  0  0
 12 13  1  0  0  0
 12 14  1  0  0  0
 13 28  1  0  0  0
 14 15  2  0  0  0
 14 25  1  0  0  0
 15 26  1  0  0  0
 16 17  1  0  0  0
 16 18  1  0  0  0
M  END
>  <Name>
tox-81

>  <substance>
Bisphenol C 2

>  <CASRN>
14868-03-2

>  <from_NCI>
1

>  <RBA>
2.300000

>  <method>
MCF-7 cytosol,RUC

>  <chemical_class>
Diphenolalkane; Bisphenol

>  <set>
0

$$$$
tox-82
  Cerius2 12190218263D 1   1.00000                          
 Structure written by MMmdl.
 30 31  0  0  0  0  0  0  0  0999 V2000
    5.9209    0.1047    1.1900 O   0  0  0  0  0  0
    4.6502    0.0567    1.1767 C   0  0  0  0  0  0
    3.8556    1.0548    0.5802 C   0  0  0  0  0  0
    2.4504    1.0122    0.5609 C   0  0  0  0  0  0
    1.7665   -0.0486    1.1526 C   0  0  0  0  0  0
    2.5162   -1.0619    1.7477 C   0  0  0  0  0  0
    3.9208   -0.9997    1.7557 C   0  0  0  0  0  0
    0.2590   -0.1115    1.1261 C   0  0  0  0  0  0
   -0.2623   -0.8478   -0.1118 C   0  0  0  0  0  0
   -1.7699   -0.9078   -0.1389 C   0  0  0  0  0  0
   -2.5169    0.0986   -0.7491 C   0  0  0  0  0  0
   -3.9215    0.0400   -0.7567 C   0  0  0  0  0  0
   -4.6539   -1.0058   -0.1623 C   0  0  0  0  0  0
   -5.9247   -1.0505   -0.1751 O   0  0  0  0  0  0
   -3.8621   -1.9972    0.4488 C   0  0  0  0  0  0
   -2.4568   -1.9581    0.4678 C   0  0  0  0  0  0
    4.3368    1.9134    0.1025 H   0  0  0  0  0  0
    1.9042    1.8211    0.0768 H   0  0  0  0  0  0
    2.0227   -1.9139    2.2140 H   0  0  0  0  0  0
    4.4553   -1.8224    2.2398 H   0  0  0  0  0  0
   -0.1464    0.9083    1.1630 H   0  0  0  0  0  0
   -0.0983   -0.6018    2.0414 H   0  0  0  0  0  0
    0.1408   -1.8685   -0.1478 H   0  0  0  0  0  0
    0.0969   -0.3586   -1.0269 H   0  0  0  0  0  0
   -2.0210    0.9426   -1.2275 H   0  0  0  0  0  0
   -4.4538    0.8569   -1.2529 H   0  0  0  0  0  0
   -4.3457   -2.8474    0.9391 H   0  0  0  0  0  0
   -1.9129   -2.7612    0.9640 H   0  0  0  0  0  0
    6.2261   -0.5796    1.5913 H   0  0  0  0  0  0
   -6.1877   -1.7502    0.2296 H   0  0  0  0  0  0
  1  2  1  0  0  0
  1 29  1  0  0  0
  2  3  2  0  0  0
  2  7  1  0  0  0
  3  4  1  0  0  0
  3 17  1  0  0  0
  4  5  2  0  0  0
  4 18  1  0  0  0
  5  6  1  0  0  0
  5  8  1  0  0  0
  6  7  2  0  0  0
  6 19  1  0  0  0
  7 20  1  0  0  0
  8  9  1  0  0  0
  8 21  1  0  0  0
  8 22  1  0  0  0
  9 10  1  0  0  0
  9 23  1  0  0  0
  9 24  1  0  0  0
 10 11  2  0  0  0
 10 16  1  0  0  0
 11 12  1  0  0  0
 11 25  1  0  0  0
 12 13  2  0  0  0
 12 26  1  0  0  0
 13 14  1  0  0  0
 13 15  1  0  0  0
 14 30  1  0  0  0
 15 16  2  0  0  0
 15 27  1  0  0  0
 16 28  1  0  0  0
M  END
>  <Name>
tox-82

>  <substance>
Bisphenol E

>  <CASRN>
6052-84-2

>  <from_NCI>
1

>  <RBA>
0.040000

>  <method>
RUC

>  <chemical_class>
Diphenolalkane; Bisphenol

>  <set>
1

$$$$
tox-83
  Cerius2 12190218263D 1   1.00000                          
 Structure written by MMmdl.
 27 28  0  0  0  0  0  0  0  0999 V2000
    3.0981   -0.9034    0.9542 O   0  0  0  0  0  0
    1.9323   -1.1054    1.4307 C   0  0  0  0  0  0
    0.9324   -0.0982    1.5979 C   0  0  0  0  0  0
   -0.3294   -0.4066    2.1687 C   0  0  0  0  0  0
   -0.6509   -1.7002    2.5594 C   0  0  0  0  0  0
    0.2881   -2.7025    2.3938 C   0  0  0  0  0  0
    1.5431   -2.4011    1.8453 C   0  0  0  0  0  0
    1.1761    1.3771    1.2285 C   0  0  0  0  0  0
    0.1650    1.9938    0.2438 C   0  0  0  0  0  0
   -0.5633    3.1870    0.5403 C   0  0  0  0  0  0
   -0.4728    3.8447    1.6294 O   0  0  0  0  0  0
   -1.4297    3.6239   -0.4897 C   0  0  0  0  0  0
   -1.5740    2.9678   -1.7206 C   0  0  0  0  0  0
   -0.8399    1.8249   -1.9831 C   0  0  0  0  0  0
    0.0268    1.3442   -1.0100 C   0  0  0  0  0  0
   -1.0689    0.3831    2.3061 H   0  0  0  0  0  0
   -1.6251   -1.9201    2.9898 H   0  0  0  0  0  0
    0.0586   -3.7237    2.6924 H   0  0  0  0  0  0
    2.2509   -3.2303    1.7443 H   0  0  0  0  0  0
    2.1686    1.5171    0.7836 H   0  0  0  0  0  0
    1.2018    1.9339    2.1729 H   0  0  0  0  0  0
   -2.0282    4.5280   -0.3378 H   0  0  0  0  0  0
   -2.2595    3.3630   -2.4680 H   0  0  0  0  0  0
   -0.9379    1.3111   -2.9367 H   0  0  0  0  0  0
    0.6094    0.4469   -1.2219 H   0  0  0  0  0  0
    3.5302   -1.6353    0.9426 H   0  0  0  0  0  0
   -0.9900    4.5184    1.5973 H   0  0  0  0  0  0
  1  2  1  0  0  0
  1 26  1  0  0  0
  2  3  2  0  0  0
  2  7  1  0  0  0
  3  4  1  0  0  0
  3  8  1  0  0  0
  4  5  2  0  0  0
  4 16  1  0  0  0
  5  6  1  0  0  0
  5 17  1  0  0  0
  6  7  2  0  0  0
  6 18  1  0  0  0
  7 19  1  0  0  0
  8  9  1  0  0  0
  8 20  1  0  0  0
  8 21  1  0  0  0
  9 10  2  0  0  0
  9 15  1  0  0  0
 10 11  1  0  0  0
 10 12  1  0  0  0
 11 27  1  0  0  0
 12 13  2  0  0  0
 12 22  1  0  0  0
 13 14  1  0  0  0
 13 23  1  0  0  0
 14 15  2  0  0  0
 14 24  1  0  0  0
 15 25  1  0  0  0
M  END
>  <Name>
tox-83

>  <substance>
2,2'-Bisphenol F

>  <CASRN>
2467-02-9

>  <from_NCI>
1

>  <RBA>
0.000000

>  <method>
RUC

>  <chemical_class>
Bisphenol

>  <set>
2

$$$$
tox-84
  Cerius2 12190218263D 1   1.00000                          
 Structure written by MMmdl.
 27 28  0  0  0  0  0  0  0  0999 V2000
   -0.2612   -0.2161    1.9536 C   0  0  0  0  0  0
    1.1628   -0.7223    1.9776 C   0  0  0  0  0  0
   -1.3161   -1.0507    1.5832 C   0  0  0  0  0  0
   -0.5624    1.1032    2.2930 C   0  0  0  0  0  0
    1.8982   -0.5667    0.6663 C   0  0  0  0  0  0
   -2.6379   -0.5706    1.5675 C   0  0  0  0  0  0
   -1.8913    1.5631    2.2707 C   0  0  0  0  0  0
    1.8772   -1.5773   -0.2954 C   0  0  0  0  0  0
    2.6130    0.5954    0.3749 C   0  0  0  0  0  0
   -2.9837    0.7506    1.9107 C   0  0  0  0  0  0
    2.5679   -1.4239   -1.5109 C   0  0  0  0  0  0
    3.2967    0.7284   -0.8469 C   0  0  0  0  0  0
   -4.1824    1.1750    1.8958 O   0  0  0  0  0  0
    3.3067   -0.2709   -1.8390 C   0  0  0  0  0  0
    3.9300   -0.1423   -2.9400 O   0  0  0  0  0  0
    1.1696   -1.7788    2.2781 H   0  0  0  0  0  0
    1.7208   -0.2084    2.7721 H   0  0  0  0  0  0
   -1.1280   -2.0868    1.3040 H   0  0  0  0  0  0
    0.2295    1.7931    2.5825 H   0  0  0  0  0  0
   -3.4219   -1.2737    1.2712 H   0  0  0  0  0  0
   -2.0642    2.6066    2.5501 H   0  0  0  0  0  0
    1.3269   -2.4999   -0.1145 H   0  0  0  0  0  0
    2.6521    1.4138    1.0929 H   0  0  0  0  0  0
    2.5164   -2.2525   -2.2234 H   0  0  0  0  0  0
    3.8419    1.6618   -1.0160 H   0  0  0  0  0  0
   -4.1968    1.9917    2.1309 H   0  0  0  0  0  0
    4.3160    0.6148   -2.9603 H   0  0  0  0  0  0
  1  2  1  0  0  0
  1  3  2  0  0  0
  1  4  1  0  0  0
  2  5  1  0  0  0
  2 16  1  0  0  0
  2 17  1  0  0  0
  3  6  1  0  0  0
  3 18  1  0  0  0
  4  7  2  0  0  0
  4 19  1  0  0  0
  5  8  2  0  0  0
  5  9  1  0  0  0
  6 10  2  0  0  0
  6 20  1  0  0  0
  7 10  1  0  0  0
  7 21  1  0  0  0
  8 11  1  0  0  0
  8 22  1  0  0  0
  9 12  2  0  0  0
  9 23  1  0  0  0
 10 13  1  0  0  0
 11 14  2  0  0  0
 11 24  1  0  0  0
 12 14  1  0  0  0
 12 25  1  0  0  0
 13 26  1  0  0  0
 14 15  1  0  0  0
 15 27  1  0  0  0
M  END
>  <Name>
tox-84

>  <substance>
4,4'-Bisphenol F

>  <CASRN>
620-92-8

>  <from_NCI>
1

>  <RBA>
0.080000

>  <method>
RUC,RUC

>  <chemical_class>
Phenol; Bisphenol

>  <set>
0

$$$$
tox-85
  Cerius2 12190218263D 1   1.00000                          
 Structure written by MMmdl.
 27 28  0  0  0  0  0  0  0  0999 V2000
   -1.7442    1.2176   -0.0113 S   0  0  0  0  0  0
   -1.7015   -0.5511    0.1391 C   0  0  0  0  0  0
   -0.0691    1.7878   -0.1604 C   0  0  0  0  0  0
   -2.3012    1.7318    1.2366 O   0  0  0  0  0  0
   -2.4176    1.5620   -1.2603 O   0  0  0  0  0  0
   -2.2541   -1.3610   -0.8465 C   0  0  0  0  0  0
   -1.1282   -1.1285    1.2676 C   0  0  0  0  0  0
    0.5025    2.5784    0.8301 C   0  0  0  0  0  0
    0.6683    1.4570   -1.2928 C   0  0  0  0  0  0
   -2.2192   -2.7570   -0.6936 C   0  0  0  0  0  0
   -1.1073   -2.5270    1.3944 C   0  0  0  0  0  0
    1.8249    3.0276    0.6781 C   0  0  0  0  0  0
    1.9882    1.9201   -1.4185 C   0  0  0  0  0  0
   -1.6482   -3.3982    0.4258 C   0  0  0  0  0  0
    2.6215    2.7207   -0.4450 C   0  0  0  0  0  0
   -1.6243   -4.6632    0.5523 O   0  0  0  0  0  0
    3.8171    3.1350   -0.5706 O   0  0  0  0  0  0
   -2.7139   -0.9352   -1.7355 H   0  0  0  0  0  0
   -0.6979   -0.5134    2.0553 H   0  0  0  0  0  0
   -0.0540    2.8567    1.7221 H   0  0  0  0  0  0
    0.2377    0.8470   -2.0842 H   0  0  0  0  0  0
   -2.6628   -3.3601   -1.4915 H   0  0  0  0  0  0
   -0.6467   -2.9424    2.2957 H   0  0  0  0  0  0
    2.2396    3.6459    1.4799 H   0  0  0  0  0  0
    2.5352    1.6375   -2.3230 H   0  0  0  0  0  0
   -1.2436   -4.8676    1.2843 H   0  0  0  0  0  0
    4.1388    2.8534   -1.3052 H   0  0  0  0  0  0
  1  2  1  0  0  0
  1  3  1  0  0  0
  1  4  2  0  0  0
  1  5  2  0  0  0
  2  6  2  0  0  0
  2  7  1  0  0  0
  3  8  2  0  0  0
  3  9  1  0  0  0
  6 10  1  0  0  0
  6 18  1  0  0  0
  7 11  2  0  0  0
  7 19  1  0  0  0
  8 12  1  0  0  0
  8 20  1  0  0  0
  9 13  2  0  0  0
  9 21  1  0  0  0
 10 14  2  0  0  0
 10 22  1  0  0  0
 11 14  1  0  0  0
 11 23  1  0  0  0
 12 15  2  0  0  0
 12 24  1  0  0  0
 13 15  1  0  0  0
 13 25  1  0  0  0
 14 16  1  0  0  0
 15 17  1  0  0  0
 16 26  1  0  0  0
 17 27  1  0  0  0
M  END
>  <Name>
tox-85

>  <substance>
Bisphenol S

>  <CASRN>
80-09-1

>  <from_NCI>
1

>  <RBA>
0.000900

>  <method>
RUC

>  <chemical_class>
Bisphenol

>  <set>
2

$$$$
tox-86
  Cerius2 12190218263D 1   1.00000                          
 Structure written by MMmdl.
 44 47  0  0  0  0  0  0  0  0999 V2000
   -4.4777   -0.6781   -0.3119 C   0  0  0  0  0  0
   -4.4126   -1.9135   -0.9746 C   0  0  0  0  0  0
   -3.1211   -2.2667   -1.4071 C   0  0  0  0  0  0
   -3.3535    0.1374   -0.0866 C   0  0  0  0  0  0
   -2.0774   -0.2497   -0.5083 C   0  0  0  0  0  0
   -1.9710   -1.4643   -1.2045 C   0  0  0  0  0  0
   -0.6464   -1.9894   -1.7104 C   0  0  0  0  0  0
    0.4728   -0.9509   -1.7180 C   0  0  0  0  0  0
   -0.8599    0.6501   -0.3131 C   0  0  0  0  0  0
    0.4653   -0.1640   -0.4042 C   0  0  0  0  0  0
    0.3713    2.3983    1.1376 C   0  0  0  0  0  0
   -0.8887    1.5290    0.9636 C   0  0  0  0  0  0
    1.6735    1.5742    1.0604 C   0  0  0  0  0  0
    1.6477    0.8028   -0.2895 C   0  0  0  0  0  0
    3.0650    0.2476   -0.4094 C   0  0  0  0  0  0
    3.9485    1.3689    0.1812 C   0  0  0  0  0  0
    2.9873    2.4292    0.8419 C   0  0  0  0  0  0
    1.7516    0.6235    2.2957 C   0  0  0  0  0  0
    3.4964    2.8967    1.9771 O   0  0  0  0  0  0
    4.9832    2.2042   -1.2785 Br  0  0  0  0  0  0
   -5.4322   -2.6475   -1.1706 O   0  0  0  0  0  0
   -5.4418   -0.3113    0.0527 H   0  0  0  0  0  0
   -2.9874   -3.2171   -1.9347 H   0  0  0  0  0  0
   -3.5169    1.0853    0.4220 H   0  0  0  0  0  0
   -0.7672   -2.3815   -2.7274 H   0  0  0  0  0  0
   -0.3510   -2.8279   -1.0667 H   0  0  0  0  0  0
    0.3413   -0.2668   -2.5663 H   0  0  0  0  0  0
    1.4282   -1.4655   -1.8684 H   0  0  0  0  0  0
   -0.8822    1.3452   -1.1669 H   0  0  0  0  0  0
    0.5065   -0.8953    0.4125 H   0  0  0  0  0  0
    0.3146    2.9345    2.0925 H   0  0  0  0  0  0
    0.3709    3.1663    0.3530 H   0  0  0  0  0  0
   -1.0349    0.8973    1.8479 H   0  0  0  0  0  0
   -1.7460    2.2115    0.9332 H   0  0  0  0  0  0
    1.5340    1.5342   -1.1070 H   0  0  0  0  0  0
    3.3117   -0.0159   -1.4426 H   0  0  0  0  0  0
    3.1707   -0.6644    0.1895 H   0  0  0  0  0  0
    4.7033    0.9531    0.8591 H   0  0  0  0  0  0
    2.7304    3.1601    0.0583 H   0  0  0  0  0  0
    2.6777    0.0405    2.3152 H   0  0  0  0  0  0
    0.9241   -0.0886    2.3393 H   0  0  0  0  0  0
    1.7115    1.1993    3.2280 H   0  0  0  0  0  0
    4.1974    3.3471    1.8090 H   0  0  0  0  0  0
   -5.1988   -3.3519   -1.5851 H   0  0  0  0  0  0
  1  2  2  0  0  0
  1  4  1  0  0  0
  1 22  1  0  0  0
  2  3  1  0  0  0
  2 21  1  0  0  0
  3  6  2  0  0  0
  3 23  1  0  0  0
  4  5  2  0  0  0
  4 24  1  0  0  0
  5  6  1  0  0  0
  5  9  1  0  0  0
  6  7  1  0  0  0
  7  8  1  0  0  0
  7 25  1  0  0  0
  7 26  1  0  0  0
  8 10  1  0  0  0
  8 27  1  0  0  0
  8 28  1  0  0  0
  9 10  1  0  0  0
  9 12  1  0  0  0
  9 29  1  0  0  0
 10 14  1  0  0  0
 10 30  1  0  0  0
 11 12  1  0  0  0
 11 13  1  0  0  0
 11 31  1  0  0  0
 11 32  1  0  0  0
 12 33  1  0  0  0
 12 34  1  0  0  0
 13 14  1  0  0  0
 13 17  1  0  0  0
 13 18  1  0  0  0
 14 15  1  0  0  0
 14 35  1  0  0  0
 15 16  1  0  0  0
 15 36  1  0  0  0
 15 37  1  0  0  0
 16 17  1  0  0  0
 16 20  1  0  0  0
 16 38  1  0  0  0
 17 19  1  0  0  0
 17 39  1  0  0  0
 18 40  1  0  0  0
 18 41  1  0  0  0
 18 42  1  0  0  0
 19 43  1  0  0  0
 21 44  1  0  0  0
M  END
>  <Name>
tox-86

>  <substance>
16a-Bromo-17b-estradiol

>  <CASRN>
54982-79-5

>  <from_NCI>
1

>  <RBA>
65.000000

>  <method>
hERa,hERa

>  <chemical_class>
Steroid, phenolic

>  <set>
1

$$$$
tox-87
  Cerius2 12190218263D 1   1.00000                          
 Structure written by MMmdl.
 58 61  0  0  0  0  0  0  0  0999 V2000
   -5.9248   -1.1543   -1.5342 C   0  0  0  0  0  0
   -4.5015   -1.5339   -1.1441 C   0  0  0  0  0  0
   -3.6042   -0.3110   -0.9632 C   0  0  0  0  0  0
   -2.1575   -0.7211   -0.6431 C   0  0  0  0  0  0
   -6.6790   -2.3490   -1.7446 O   0  0  0  0  0  0
   -4.1215    0.4991    0.1054 O   0  0  0  0  0  0
   -1.3663    0.4771   -0.5962 O   0  0  0  0  0  0
   -0.0236    0.3270   -0.3851 C   0  0  0  0  0  0
    0.7132    1.5102   -0.4483 C   0  0  0  0  0  0
    2.0969    1.4999   -0.2519 C   0  0  0  0  0  0
    2.7766    0.3016    0.0163 C   0  0  0  0  0  0
    2.0248   -0.8810    0.0846 C   0  0  0  0  0  0
    0.6373   -0.8692   -0.1150 C   0  0  0  0  0  0
    4.2957    0.3305    0.2234 C   0  0  0  0  0  0
    5.1375   -0.0808   -1.0266 C   0  0  0  0  0  0
    5.2239   -1.6099   -1.1572 C   0  0  0  0  0  0
    5.9182   -2.2121    0.0636 C   0  0  0  0  0  0
    5.4547   -1.6472    1.3843 C   0  0  0  0  0  0
    5.8233   -2.3160    2.5636 C   0  0  0  0  0  0
    5.4647   -1.8037    3.8060 C   0  0  0  0  0  0
    4.7429   -0.6227    3.9058 C   0  0  0  0  0  0
    4.3752    0.0535    2.7418 C   0  0  0  0  0  0
    4.7269   -0.4442    1.4720 C   0  0  0  0  0  0
    4.7428    0.6496   -2.3052 C   0  0  0  0  0  0
    3.8966    0.0854   -3.2710 C   0  0  0  0  0  0
    3.5528    0.7992   -4.4224 C   0  0  0  0  0  0
    4.0444    2.0866   -4.6230 C   0  0  0  0  0  0
    4.8797    2.6642   -3.6709 C   0  0  0  0  0  0
    5.2256    1.9524   -2.5207 C   0  0  0  0  0  0
    5.8478   -2.4937    4.9182 O   0  0  0  0  0  0
   -5.9350   -0.5732   -2.4617 H   0  0  0  0  0  0
   -6.4134   -0.5755   -0.7446 H   0  0  0  0  0  0
   -4.0847   -2.2016   -1.9083 H   0  0  0  0  0  0
   -4.5414   -2.1167   -0.2147 H   0  0  0  0  0  0
   -3.6191    0.3096   -1.8666 H   0  0  0  0  0  0
   -1.7798   -1.3889   -1.4264 H   0  0  0  0  0  0
   -2.1231   -1.2128    0.3366 H   0  0  0  0  0  0
   -7.5822   -2.0510   -1.9895 H   0  0  0  0  0  0
   -3.4522    1.2047    0.2437 H   0  0  0  0  0  0
    0.2122    2.4538   -0.6573 H   0  0  0  0  0  0
    2.6419    2.4409   -0.3181 H   0  0  0  0  0  0
    2.5070   -1.8325    0.3021 H   0  0  0  0  0  0
    0.1091   -1.8164   -0.0466 H   0  0  0  0  0  0
    4.5670    1.3775    0.4319 H   0  0  0  0  0  0
    6.1737    0.2385   -0.8252 H   0  0  0  0  0  0
    5.7877   -1.8915   -2.0556 H   0  0  0  0  0  0
    4.2291   -2.0540   -1.2691 H   0  0  0  0  0  0
    6.9980   -2.0315   -0.0167 H   0  0  0  0  0  0
    5.7667   -3.2983    0.0521 H   0  0  0  0  0  0
    6.4000   -3.2382    2.5114 H   0  0  0  0  0  0
    4.4598   -0.2135    4.8726 H   0  0  0  0  0  0
    3.8062    0.9793    2.8278 H   0  0  0  0  0  0
    3.4815   -0.9122   -3.1386 H   0  0  0  0  0  0
    2.8948    0.3478   -5.1630 H   0  0  0  0  0  0
    3.7737    2.6403   -5.5199 H   0  0  0  0  0  0
    5.2634    3.6717   -3.8223 H   0  0  0  0  0  0
    5.8789    2.4254   -1.7874 H   0  0  0  0  0  0
    5.5304   -2.0064    5.7084 H   0  0  0  0  0  0
  1  2  1  0  0  0
  1  5  1  0  0  0
  1 31  1  0  0  0
  1 32  1  0  0  0
  2  3  1  0  0  0
  2 33  1  0  0  0
  2 34  1  0  0  0
  3  4  1  0  0  0
  3  6  1  0  0  0
  3 35  1  0  0  0
  4  7  1  0  0  0
  4 36  1  0  0  0
  4 37  1  0  0  0
  5 38  1  0  0  0
  6 39  1  0  0  0
  7  8  1  0  0  0
  8  9  2  0  0  0
  8 13  1  0  0  0
  9 10  1  0  0  0
  9 40  1  0  0  0
 10 11  2  0  0  0
 10 41  1  0  0  0
 11 12  1  0  0  0
 11 14  1  0  0  0
 12 13  2  0  0  0
 12 42  1  0  0  0
 13 43  1  0  0  0
 14 15  1  0  0  0
 14 23  1  0  0  0
 14 44  1  0  0  0
 15 16  1  0  0  0
 15 24  1  0  0  0
 15 45  1  0  0  0
 16 17  1  0  0  0
 16 46  1  0  0  0
 16 47  1  0  0  0
 17 18  1  0  0  0
 17 48  1  0  0  0
 17 49  1  0  0  0
 18 19  2  0  0  0
 18 23  1  0  0  0
 19 20  1  0  0  0
 19 50  1  0  0  0
 20 21  2  0  0  0
 20 30  1  0  0  0
 21 22  1  0  0  0
 21 51  1  0  0  0
 22 23  2  0  0  0
 22 52  1  0  0  0
 24 25  2  0  0  0
 24 29  1  0  0  0
 25 26  1  0  0  0
 25 53  1  0  0  0
 26 27  2  0  0  0
 26 54  1  0  0  0
 27 28  1  0  0  0
 27 55  1  0  0  0
 28 29  2  0  0  0
 28 56  1  0  0  0
 29 57  1  0  0  0
 30 58  1  0  0  0
M  END
>  <Name>
tox-87

>  <substance>
1,3-Butanediol, 4-[4-(1,2,3,4-tetrahydro-6-hydroxy-2-phenyl-1-naphthalenyl)phenoxy]

>  <CASRN>
107144-85-4

>  <from_NCI>
0

>  <RBA>
30.000000

>  <method>
MCF-7 cytosol

>  <chemical_class>
Phenyl ether

>  <set>
1

$$$$
tox-88
  Cerius2 12190218263D 1   1.00000                          
 Structure written by MMmdl.
 61 64  0  0  0  0  0  0  0  0999 V2000
   -6.1522   -0.8158   -1.8483 C   0  0  0  0  0  0
   -4.7365   -1.1885   -1.4274 C   0  0  0  0  0  0
   -3.8627    0.0404   -1.1805 C   0  0  0  0  0  0
   -2.4219   -0.3643   -0.8321 C   0  0  0  0  0  0
   -6.8898   -2.0136   -2.0963 O   0  0  0  0  0  0
   -4.4212    0.8025   -0.0972 O   0  0  0  0  0  0
   -1.6467    0.8392   -0.7097 O   0  0  0  0  0  0
   -0.3045    0.6878   -0.4963 C   0  0  0  0  0  0
    0.4357    1.8689   -0.5520 C   0  0  0  0  0  0
    1.8209    1.8514   -0.3622 C   0  0  0  0  0  0
    2.4966    0.6473   -0.1068 C   0  0  0  0  0  0
    1.7383   -0.5309   -0.0360 C   0  0  0  0  0  0
    0.3512   -0.5121   -0.2295 C   0  0  0  0  0  0
    4.0195    0.6587    0.0775 C   0  0  0  0  0  0
    4.8349    0.2370   -1.1866 C   0  0  0  0  0  0
    4.8999   -1.2921   -1.3212 C   0  0  0  0  0  0
    5.5989   -1.9092   -0.1109 C   0  0  0  0  0  0
    5.1620   -1.3403    1.2177 C   0  0  0  0  0  0
    5.5369   -2.0243    2.3907 C   0  0  0  0  0  0
    5.2066   -1.5240    3.6507 C   0  0  0  0  0  0
    4.5075   -0.3222    3.7429 C   0  0  0  0  0  0
    4.1368    0.3721    2.5903 C   0  0  0  0  0  0
    4.4587   -0.1256    1.3165 C   0  0  0  0  0  0
    4.4205    0.9678   -2.4590 C   0  0  0  0  0  0
    3.5229    0.4197   -3.3878 C   0  0  0  0  0  0
    3.1556    1.1322   -4.5319 C   0  0  0  0  0  0
    3.6779    2.4021   -4.7635 C   0  0  0  0  0  0
    4.5663    2.9631   -3.8501 C   0  0  0  0  0  0
    4.9329    2.2528   -2.7054 C   0  0  0  0  0  0
    5.5134   -2.1019    4.8518 O   0  0  0  0  0  0
    6.2099   -3.3457    4.8051 C   0  0  0  0  0  0
   -6.1429   -0.2225   -2.7680 H   0  0  0  0  0  0
   -6.6655   -0.2524   -1.0633 H   0  0  0  0  0  0
   -4.2877   -1.8273   -2.1979 H   0  0  0  0  0  0
   -4.7950   -1.8001   -0.5177 H   0  0  0  0  0  0
   -3.8612    0.6936   -2.0610 H   0  0  0  0  0  0
   -2.0122   -0.9942   -1.6304 H   0  0  0  0  0  0
   -2.4131   -0.8966    0.1267 H   0  0  0  0  0  0
   -7.7899   -1.7190   -2.3577 H   0  0  0  0  0  0
   -3.7609    1.5041    0.0950 H   0  0  0  0  0  0
   -0.0629    2.8157   -0.7535 H   0  0  0  0  0  0
    2.3698    2.7904   -0.4268 H   0  0  0  0  0  0
    2.2159   -1.4852    0.1774 H   0  0  0  0  0  0
   -0.1814   -1.4566   -0.1589 H   0  0  0  0  0  0
    4.3061    1.7024    0.2830 H   0  0  0  0  0  0
    5.8780    0.5450   -1.0043 H   0  0  0  0  0  0
    5.4488   -1.5791   -2.2274 H   0  0  0  0  0  0
    3.8984   -1.7234   -1.4220 H   0  0  0  0  0  0
    6.6809   -1.7493   -0.2034 H   0  0  0  0  0  0
    5.4268   -2.9928   -0.1248 H   0  0  0  0  0  0
    6.0979   -2.9500    2.2846 H   0  0  0  0  0  0
    4.2447    0.0843    4.7178 H   0  0  0  0  0  0
    3.5883    1.3087    2.6918 H   0  0  0  0  0  0
    3.0837   -0.5633   -3.2295 H   0  0  0  0  0  0
    2.4561    0.6940   -5.2415 H   0  0  0  0  0  0
    3.3892    2.9558   -5.6547 H   0  0  0  0  0  0
    4.9743    3.9563   -4.0273 H   0  0  0  0  0  0
    5.6252    2.7137   -2.0011 H   0  0  0  0  0  0
    6.3649   -3.6788    5.8360 H   0  0  0  0  0  0
    7.1949   -3.2269    4.3417 H   0  0  0  0  0  0
    5.6180   -4.1110    4.2915 H   0  0  0  0  0  0
  1  2  1  0  0  0
  1  5  1  0  0  0
  1 32  1  0  0  0
  1 33  1  0  0  0
  2  3  1  0  0  0
  2 34  1  0  0  0
  2 35  1  0  0  0
  3  4  1  0  0  0
  3  6  1  0  0  0
  3 36  1  0  0  0
  4  7  1  0  0  0
  4 37  1  0  0  0
  4 38  1  0  0  0
  5 39  1  0  0  0
  6 40  1  0  0  0
  7  8  1  0  0  0
  8  9  2  0  0  0
  8 13  1  0  0  0
  9 10  1  0  0  0
  9 41  1  0  0  0
 10 11  2  0  0  0
 10 42  1  0  0  0
 11 12  1  0  0  0
 11 14  1  0  0  0
 12 13  2  0  0  0
 12 43  1  0  0  0
 13 44  1  0  0  0
 14 15  1  0  0  0
 14 23  1  0  0  0
 14 45  1  0  0  0
 15 16  1  0  0  0
 15 24  1  0  0  0
 15 46  1  0  0  0
 16 17  1  0  0  0
 16 47  1  0  0  0
 16 48  1  0  0  0
 17 18  1  0  0  0
 17 49  1  0  0  0
 17 50  1  0  0  0
 18 19  2  0  0  0
 18 23  1  0  0  0
 19 20  1  0  0  0
 19 51  1  0  0  0
 20 21  2  0  0  0
 20 30  1  0  0  0
 21 22  1  0  0  0
 21 52  1  0  0  0
 22 23  2  0  0  0
 22 53  1  0  0  0
 24 25  2  0  0  0
 24 29  1  0  0  0
 25 26  1  0  0  0
 25 54  1  0  0  0
 26 27  2  0  0  0
 26 55  1  0  0  0
 27 28  1  0  0  0
 27 56  1  0  0  0
 28 29  2  0  0  0
 28 57  1  0  0  0
 29 58  1  0  0  0
 30 31  1  0  0  0
 31 59  1  0  0  0
 31 60  1  0  0  0
 31 61  1  0  0  0
M  END
>  <Name>
tox-88

>  <substance>
1,3-Butanediol, 4-[4-(1,2,3,4-tetrahydro-6-methoxy-2-phenyl-1- naphthenyl)phenoxy]

>  <CASRN>
107163-56-4

>  <from_NCI>
0

>  <RBA>
0.100000

>  <method>
MCF-7 cytosol

>  <chemical_class>
Phenyl ether

>  <set>
0

$$$$
tox-89
  Cerius2 12190218263D 1   1.00000                          
 Structure written by MMmdl.
 58 61  0  0  0  0  0  0  0  0999 V2000
   -7.0187   -0.6865   -0.8335 C   0  0  0  0  0  0
   -8.3321   -1.0334   -0.9486 O   0  0  0  0  0  0
   -6.7086    0.4811   -0.1552 C   0  0  0  0  0  0
   -5.3730    0.8662   -0.0145 C   0  0  0  0  0  0
   -6.0128   -1.4720   -1.3814 C   0  0  0  0  0  0
   -4.6646   -1.0887   -1.2530 C   0  0  0  0  0  0
   -3.6159   -1.9964   -1.8538 C   0  0  0  0  0  0
   -2.2255   -1.3730   -1.9335 C   0  0  0  0  0  0
   -1.8948   -0.6697   -0.6155 C   0  0  0  0  0  0
   -0.4589   -0.1454   -0.5747 C   0  0  0  0  0  0
    0.6968   -1.1155   -0.8067 C   0  0  0  0  0  0
    1.9148   -0.4218   -0.1634 C   0  0  0  0  0  0
    1.3780    0.8701    0.4965 C   0  0  0  0  0  0
    2.1187    1.3455    1.6646 N   0  0  0  0  0  0
   -0.1114    0.5208    0.7755 C   0  0  0  0  0  0
   -0.2485   -0.4251    1.9988 C   0  0  0  0  0  0
   -1.0410    1.7286    0.9610 C   0  0  0  0  0  0
   -2.5273    1.3344    0.8589 C   0  0  0  0  0  0
   -2.8709    0.5303   -0.4235 C   0  0  0  0  0  0
   -4.3282    0.0827   -0.5376 C   0  0  0  0  0  0
    3.4322    1.9148    1.3477 C   0  0  0  0  0  0
    4.5768    0.9071    1.4882 C   0  0  0  0  0  0
    5.9294    1.5719    1.2306 C   0  0  0  0  0  0
    7.0774    0.5821    1.3684 C   0  0  0  0  0  0
    8.3054    1.2636    1.1178 O   0  0  0  0  0  0
   -8.3873   -1.8746   -1.4506 H   0  0  0  0  0  0
   -7.4978    1.1012    0.2641 H   0  0  0  0  0  0
   -5.1715    1.7987    0.5084 H   0  0  0  0  0  0
   -6.2615   -2.3878   -1.9152 H   0  0  0  0  0  0
   -3.9219   -2.2997   -2.8624 H   0  0  0  0  0  0
   -3.5657   -2.9037   -1.2381 H   0  0  0  0  0  0
   -2.1848   -0.6557   -2.7634 H   0  0  0  0  0  0
   -1.4977   -2.1608   -2.1575 H   0  0  0  0  0  0
   -2.0428   -1.3984    0.1917 H   0  0  0  0  0  0
   -0.3790    0.6148   -1.3699 H   0  0  0  0  0  0
    0.8642   -1.2987   -1.8731 H   0  0  0  0  0  0
    0.5132   -2.0842   -0.3288 H   0  0  0  0  0  0
    2.6789   -0.1884   -0.9128 H   0  0  0  0  0  0
    2.3690   -1.0986    0.5695 H   0  0  0  0  0  0
    1.3901    1.6690   -0.2596 H   0  0  0  0  0  0
    2.2319    0.5820    2.3373 H   0  0  0  0  0  0
    0.0019    0.1032    2.9259 H   0  0  0  0  0  0
    0.4109   -1.2959    1.9352 H   0  0  0  0  0  0
   -1.2646   -0.8076    2.1255 H   0  0  0  0  0  0
   -0.8306    2.4828    0.1915 H   0  0  0  0  0  0
   -0.8565    2.2149    1.9264 H   0  0  0  0  0  0
   -3.1067    2.2645    0.8884 H   0  0  0  0  0  0
   -2.8250    0.7627    1.7461 H   0  0  0  0  0  0
   -2.7201    1.2197   -1.2688 H   0  0  0  0  0  0
    3.6045    2.7290    2.0621 H   0  0  0  0  0  0
    3.4422    2.3786    0.3540 H   0  0  0  0  0  0
    4.4479    0.0794    0.7837 H   0  0  0  0  0  0
    4.5703    0.4770    2.4975 H   0  0  0  0  0  0
    6.0828    2.4047    1.9282 H   0  0  0  0  0  0
    5.9498    2.0139    0.2266 H   0  0  0  0  0  0
    6.9801   -0.2338    0.6452 H   0  0  0  0  0  0
    7.1139    0.1628    2.3789 H   0  0  0  0  0  0
    9.0084    0.5854    1.2192 H   0  0  0  0  0  0
  1  2  1  0  0  0
  1  3  2  0  0  0
  1  5  1  0  0  0
  2 26  1  0  0  0
  3  4  1  0  0  0
  3 27  1  0  0  0
  4 20  2  0  0  0
  4 28  1  0  0  0
  5  6  2  0  0  0
  5 29  1  0  0  0
  6  7  1  0  0  0
  6 20  1  0  0  0
  7  8  1  0  0  0
  7 30  1  0  0  0
  7 31  1  0  0  0
  8  9  1  0  0  0
  8 32  1  0  0  0
  8 33  1  0  0  0
  9 10  1  0  0  0
  9 19  1  0  0  0
  9 34  1  0  0  0
 10 11  1  0  0  0
 10 15  1  0  0  0
 10 35  1  0  0  0
 11 12  1  0  0  0
 11 36  1  0  0  0
 11 37  1  0  0  0
 12 13  1  0  0  0
 12 38  1  0  0  0
 12 39  1  0  0  0
 13 14  1  0  0  0
 13 15  1  0  0  0
 13 40  1  0  0  0
 14 21  1  0  0  0
 14 41  1  0  0  0
 15 16  1  0  0  0
 15 17  1  0  0  0
 16 42  1  0  0  0
 16 43  1  0  0  0
 16 44  1  0  0  0
 17 18  1  0  0  0
 17 45  1  0  0  0
 17 46  1  0  0  0
 18 19  1  0  0  0
 18 47  1  0  0  0
 18 48  1  0  0  0
 19 20  1  0  0  0
 19 49  1  0  0  0
 21 22  1  0  0  0
 21 50  1  0  0  0
 21 51  1  0  0  0
 22 23  1  0  0  0
 22 52  1  0  0  0
 22 53  1  0  0  0
 23 24  1  0  0  0
 23 54  1  0  0  0
 23 55  1  0  0  0
 24 25  1  0  0  0
 24 56  1  0  0  0
 24 57  1  0  0  0
 25 58  1  0  0  0
M  END
>  <Name>
tox-89

>  <substance>
Butolame

>  <CASRN>
150748-23-5

>  <from_NCI>
0

>  <RBA>
0.100000

>  <method>
RUC

>  <chemical_class>
Steroid, phenolic

>  <set>
0

$$$$
tox-90
  Cerius2 12190218263D 1   1.00000                          
 Structure written by MMmdl.
 29 29  0  0  0  0  0  0  0  0999 V2000
   -0.1824   -1.0022    2.9497 C   0  0  0  0  0  0
    0.0483   -2.4383    2.7003 C   0  0  0  0  0  0
   -1.4267   -0.4321    2.6727 C   0  0  0  0  0  0
    0.8343   -0.2356    3.5218 C   0  0  0  0  0  0
    0.1200   -2.8524    1.4099 O   0  0  0  0  0  0
    0.1631   -3.2232    3.6369 O   0  0  0  0  0  0
   -1.6361    0.9247    2.9371 C   0  0  0  0  0  0
    0.6112    1.1202    3.7808 C   0  0  0  0  0  0
    0.2677   -1.9179    0.3148 C   0  0  0  0  0  0
   -0.6132    1.7187    3.4658 C   0  0  0  0  0  0
    0.6949   -2.7114   -0.9159 C   0  0  0  0  0  0
   -0.8479    3.0429    3.7843 N   0  0  0  0  0  0
    0.8710   -1.8094   -2.1340 C   0  0  0  0  0  0
    1.2964   -2.6036   -3.3584 C   0  0  0  0  0  0
   -2.2351   -1.0324    2.2612 H   0  0  0  0  0  0
    1.7948   -0.6823    3.7691 H   0  0  0  0  0  0
   -2.6119    1.3590    2.7251 H   0  0  0  0  0  0
    1.4079    1.7088    4.2331 H   0  0  0  0  0  0
    1.0289   -1.1691    0.5588 H   0  0  0  0  0  0
   -0.6959   -1.4339    0.1269 H   0  0  0  0  0  0
   -0.0507   -3.4893   -1.1231 H   0  0  0  0  0  0
    1.6297   -3.2430   -0.6978 H   0  0  0  0  0  0
   -0.0766    3.6541    4.0427 H   0  0  0  0  0  0
   -1.6811    3.5146    3.4398 H   0  0  0  0  0  0
    1.6250   -1.0421   -1.9233 H   0  0  0  0  0  0
   -0.0692   -1.2894   -2.3513 H   0  0  0  0  0  0
    1.4170   -1.9379   -4.2189 H   0  0  0  0  0  0
    0.5471   -3.3590   -3.6158 H   0  0  0  0  0  0
    2.2508   -3.1109   -3.1850 H   0  0  0  0  0  0
  1  2  1  0  0  0
  1  3  2  0  0  0
  1  4  1  0  0  0
  2  5  1  0  0  0
  2  6  2  0  0  0
  3  7  1  0  0  0
  3 15  1  0  0  0
  4  8  2  0  0  0
  4 16  1  0  0  0
  5  9  1  0  0  0
  7 10  2  0  0  0
  7 17  1  0  0  0
  8 10  1  0  0  0
  8 18  1  0  0  0
  9 11  1  0  0  0
  9 19  1  0  0  0
  9 20  1  0  0  0
 10 12  1  0  0  0
 11 13  1  0  0  0
 11 21  1  0  0  0
 11 22  1  0  0  0
 12 23  1  0  0  0
 12 24  1  0  0  0
 13 14  1  0  0  0
 13 25  1  0  0  0
 13 26  1  0  0  0
 14 27  1  0  0  0
 14 28  1  0  0  0
 14 29  1  0  0  0
M  END
>  <Name>
tox-90

>  <substance>
Butyl 4-aminobenzoate

>  <CASRN>
94-25-7

>  <from_NCI>
1

>  <RBA>
0.000000

>  <method>
RUC

>  <chemical_class>
Aniline

>  <set>
1

$$$$
tox-91
  Cerius2 12190218263D 1   1.00000                          
 Structure written by MMmdl.
 24 24  0  0  0  0  0  0  0  0999 V2000
   -0.8591    0.3861   -1.3249 C   0  0  0  0  0  0
   -1.9926    1.1324   -0.9754 C   0  0  0  0  0  0
   -1.0088   -0.9707   -1.6418 C   0  0  0  0  0  0
    0.5074    1.0275   -1.3320 C   0  0  0  0  0  0
   -3.2539    0.5345   -0.9543 C   0  0  0  0  0  0
   -2.2710   -1.5667   -1.6200 C   0  0  0  0  0  0
    1.1969    0.9081    0.0289 C   0  0  0  0  0  0
   -3.3930   -0.8141   -1.2774 C   0  0  0  0  0  0
    2.5792    1.5603    0.0086 C   0  0  0  0  0  0
    3.2697    1.4446    1.3580 C   0  0  0  0  0  0
   -1.8994    2.1865   -0.7160 H   0  0  0  0  0  0
   -0.1407   -1.5732   -1.9072 H   0  0  0  0  0  0
    0.4118    2.0831   -1.6164 H   0  0  0  0  0  0
    1.1234    0.5602   -2.1109 H   0  0  0  0  0  0
   -4.1294    1.1222   -0.6835 H   0  0  0  0  0  0
   -2.3785   -2.6211   -1.8694 H   0  0  0  0  0  0
    1.2941   -0.1492    0.3062 H   0  0  0  0  0  0
    0.5790    1.3814    0.8025 H   0  0  0  0  0  0
   -4.3768   -1.2798   -1.2601 H   0  0  0  0  0  0
    2.4873    2.6195   -0.2586 H   0  0  0  0  0  0
    3.2038    1.0852   -0.7567 H   0  0  0  0  0  0
    4.2561    1.9173    1.3208 H   0  0  0  0  0  0
    3.4060    0.3958    1.6403 H   0  0  0  0  0  0
    2.6857    1.9385    2.1412 H   0  0  0  0  0  0
  1  2  2  0  0  0
  1  3  1  0  0  0
  1  4  1  0  0  0
  2  5  1  0  0  0
  2 11  1  0  0  0
  3  6  2  0  0  0
  3 12  1  0  0  0
  4  7  1  0  0  0
  4 13  1  0  0  0
  4 14  1  0  0  0
  5  8  2  0  0  0
  5 15  1  0  0  0
  6  8  1  0  0  0
  6 16  1  0  0  0
  7  9  1  0  0  0
  7 17  1  0  0  0
  7 18  1  0  0  0
  8 19  1  0  0  0
  9 10  1  0  0  0
  9 20  1  0  0  0
  9 21  1  0  0  0
 10 22  1  0  0  0
 10 23  1  0  0  0
 10 24  1  0  0  0
M  END
>  <Name>
tox-91

>  <substance>
n -Butylbenzene

>  <CASRN>
104-51-8

>  <from_NCI>
1

>  <RBA>
0.000000

>  <method>
RUC

>  <chemical_class>
Aromatic hydrocarbon; Alkylbenzene

>  <set>
0

$$$$
tox-92
  Cerius2 12190218263D 1   1.00000                          
 Structure written by MMmdl.
 24 24  0  0  0  0  0  0  0  0999 V2000
    0.4569    0.3122   -0.1610 C   0  0  0  0  0  0
    0.4587    1.8330   -0.1962 C   0  0  0  0  0  0
   -0.4623   -0.4422   -0.9067 C   0  0  0  0  0  0
    1.3947   -0.3672    0.6321 C   0  0  0  0  0  0
   -0.8718    2.4522    0.2783 C   0  0  0  0  0  0
    0.8088    2.3373   -1.6014 C   0  0  0  0  0  0
   -0.4454   -1.8378   -0.8570 C   0  0  0  0  0  0
    1.4100   -1.7628    0.6807 C   0  0  0  0  0  0
   -1.1879    2.1446    1.7368 C   0  0  0  0  0  0
    0.4900   -2.4976   -0.0634 C   0  0  0  0  0  0
    1.2485    2.1970    0.4753 H   0  0  0  0  0  0
   -1.2025    0.0508   -1.5353 H   0  0  0  0  0  0
    2.1234    0.1872    1.2228 H   0  0  0  0  0  0
   -1.7069    2.1161   -0.3478 H   0  0  0  0  0  0
   -0.8182    3.5425    0.1661 H   0  0  0  0  0  0
    0.9069    3.4283   -1.6062 H   0  0  0  0  0  0
    0.0408    2.0692   -2.3352 H   0  0  0  0  0  0
    1.7603    1.9153   -1.9440 H   0  0  0  0  0  0
   -1.1648   -2.4104   -1.4400 H   0  0  0  0  0  0
    2.1423   -2.2766    1.3012 H   0  0  0  0  0  0
   -2.1003    2.6676    2.0410 H   0  0  0  0  0  0
   -0.3754    2.4741    2.3922 H   0  0  0  0  0  0
   -1.3495    1.0744    1.8971 H   0  0  0  0  0  0
    0.5023   -3.5854   -0.0252 H   0  0  0  0  0  0
  1  2  1  0  0  0
  1  3  2  0  0  0
  1  4  1  0  0  0
  2  5  1  0  0  0
  2  6  1  0  0  0
  2 11  1  0  0  0
  3  7  1  0  0  0
  3 12  1  0  0  0
  4  8  2  0  0  0
  4 13  1  0  0  0
  5  9  1  0  0  0
  5 14  1  0  0  0
  5 15  1  0  0  0
  6 16  1  0  0  0
  6 17  1  0  0  0
  6 18  1  0  0  0
  7 10  2  0  0  0
  7 19  1  0  0  0
  8 10  1  0  0  0
  8 20  1  0  0  0
  9 21  1  0  0  0
  9 22  1  0  0  0
  9 23  1  0  0  0
 10 24  1  0  0  0
M  END
>  <Name>
tox-92

>  <substance>
sec -Butylbenzene

>  <CASRN>
135-98-8

>  <from_NCI>
1

>  <RBA>
0.000000

>  <method>
RUC

>  <chemical_class>
Alkylbenzene

>  <set>
1

$$$$
tox-93
  Cerius2 12190218263D 1   1.00000                          
 Structure written by MMmdl.
 43 44  0  0  0  0  0  0  0  0999 V2000
   -0.0010   -0.1229    0.9367 C   0  0  0  0  0  0
    1.1805   -0.4032    0.2392 C   0  0  0  0  0  0
   -0.5582    1.2455    0.9691 C   0  0  0  0  0  0
   -0.6256   -1.1350    1.6823 C   0  0  0  0  0  0
    1.7317   -1.6931    0.2883 C   0  0  0  0  0  0
    1.8181    0.6162   -0.6182 C   0  0  0  0  0  0
   -1.8946    1.1840    0.7668 O   0  0  0  0  0  0
    0.1081    2.2530    1.1472 O   0  0  0  0  0  0
   -0.0723   -2.4164    1.7260 C   0  0  0  0  0  0
    1.1054   -2.6939    1.0332 C   0  0  0  0  0  0
    3.1425    0.6636   -0.3347 O   0  0  0  0  0  0
    1.2201    1.2942   -1.4385 O   0  0  0  0  0  0
   -2.5466    2.4594    0.7697 C   0  0  0  0  0  0
    3.8855    1.6248   -1.1018 C   0  0  0  0  0  0
   -4.0215    2.2198    0.5717 C   0  0  0  0  0  0
    5.3382    1.5731   -0.6434 C   0  0  0  0  0  0
   -4.9034    2.2525    1.6607 C   0  0  0  0  0  0
   -4.5270    1.9278   -0.7037 C   0  0  0  0  0  0
    6.2086    2.5615   -1.4142 C   0  0  0  0  0  0
   -6.2661    2.0123    1.4749 C   0  0  0  0  0  0
   -5.8898    1.6870   -0.8871 C   0  0  0  0  0  0
    7.6542    2.5119   -0.9461 C   0  0  0  0  0  0
   -6.7588    1.7305    0.2016 C   0  0  0  0  0  0
   -1.5352   -0.9305    2.2448 H   0  0  0  0  0  0
    2.6409   -1.9294   -0.2619 H   0  0  0  0  0  0
   -0.5578   -3.1986    2.3081 H   0  0  0  0  0  0
    1.5344   -3.6944    1.0694 H   0  0  0  0  0  0
   -2.1591    3.0843   -0.0443 H   0  0  0  0  0  0
   -2.3671    2.9715    1.7230 H   0  0  0  0  0  0
    3.4702    2.6250   -0.9325 H   0  0  0  0  0  0
    3.8140    1.3714   -2.1658 H   0  0  0  0  0  0
    5.7222    0.5526   -0.7662 H   0  0  0  0  0  0
    5.3860    1.7833    0.4325 H   0  0  0  0  0  0
   -4.5348    2.4660    2.6636 H   0  0  0  0  0  0
   -3.8585    1.8848   -1.5629 H   0  0  0  0  0  0
    5.8225    3.5791   -1.2834 H   0  0  0  0  0  0
    6.1698    2.3347   -2.4860 H   0  0  0  0  0  0
   -6.9442    2.0431    2.3262 H   0  0  0  0  0  0
   -6.2733    1.4629   -1.8812 H   0  0  0  0  0  0
    8.2605    3.2272   -1.5105 H   0  0  0  0  0  0
    8.0801    1.5144   -1.0939 H   0  0  0  0  0  0
    7.7310    2.7648    0.1163 H   0  0  0  0  0  0
   -7.8213    1.5416    0.0584 H   0  0  0  0  0  0
  1  2  2  0  0  0
  1  3  1  0  0  0
  1  4  1  0  0  0
  2  5  1  0  0  0
  2  6  1  0  0  0
  3  7  1  0  0  0
  3  8  2  0  0  0
  4  9  2  0  0  0
  4 24  1  0  0  0
  5 10  2  0  0  0
  5 25  1  0  0  0
  6 11  1  0  0  0
  6 12  2  0  0  0
  7 13  1  0  0  0
  9 10  1  0  0  0
  9 26  1  0  0  0
 10 27  1  0  0  0
 11 14  1  0  0  0
 13 15  1  0  0  0
 13 28  1  0  0  0
 13 29  1  0  0  0
 14 16  1  0  0  0
 14 30  1  0  0  0
 14 31  1  0  0  0
 15 17  2  0  0  0
 15 18  1  0  0  0
 16 19  1  0  0  0
 16 32  1  0  0  0
 16 33  1  0  0  0
 17 20  1  0  0  0
 17 34  1  0  0  0
 18 21  2  0  0  0
 18 35  1  0  0  0
 19 22  1  0  0  0
 19 36  1  0  0  0
 19 37  1  0  0  0
 20 23  2  0  0  0
 20 38  1  0  0  0
 21 23  1  0  0  0
 21 39  1  0  0  0
 22 40  1  0  0  0
 22 41  1  0  0  0
 22 42  1  0  0  0
 23 43  1  0  0  0
M  END
>  <Name>
tox-93

>  <substance>
Butyl benzyl phthalate

>  <CASRN>
85-68-7

>  <from_NCI>
1

>  <RBA>
0.002000

>  <method>
GST-hERadef,GST-mERadef,hERa-FP,hERa-FP,RBC,RUC,RUC,RUC,RUC,RUC

>  <chemical_class>
Phthalate

>  <set>
0

$$$$
tox-94
  Cerius2 12190218263D 1   1.00000                          
 Structure written by MMmdl.
 28 28  0  0  0  0  0  0  0  0999 V2000
   -0.6064    1.6611    0.9840 C   0  0  0  0  0  0
   -1.2679    0.4352    0.9183 C   0  0  0  0  0  0
   -1.3248    2.7820    1.3988 C   0  0  0  0  0  0
   -2.6282    0.3462    1.2642 C   0  0  0  0  0  0
   -2.6839    2.6684    1.7392 C   0  0  0  0  0  0
   -3.3915    1.4520    1.6871 C   0  0  0  0  0  0
   -4.6208    1.3593    1.9970 O   0  0  0  0  0  0
    0.8318    1.8214    0.6320 C   0  0  0  0  0  0
    1.3580    0.6404    0.2222 O   0  0  0  0  0  0
    1.4393    2.8807    0.7061 O   0  0  0  0  0  0
    2.7480    0.6861   -0.1362 C   0  0  0  0  0  0
    3.1983   -0.7078   -0.5647 C   0  0  0  0  0  0
    3.1095   -1.7217    0.5781 C   0  0  0  0  0  0
    3.5963   -3.0945    0.1413 C   0  0  0  0  0  0
   -0.7527   -0.4694    0.6023 H   0  0  0  0  0  0
   -0.8453    3.7572    1.4641 H   0  0  0  0  0  0
   -3.0988   -0.6392    1.1951 H   0  0  0  0  0  0
   -3.1989    3.5798    2.0574 H   0  0  0  0  0  0
    3.3394    1.0305    0.7202 H   0  0  0  0  0  0
    2.8799    1.3828   -0.9720 H   0  0  0  0  0  0
    4.2301   -0.6534   -0.9309 H   0  0  0  0  0  0
    2.5682   -1.0521   -1.3938 H   0  0  0  0  0  0
    2.0750   -1.8061    0.9302 H   0  0  0  0  0  0
    3.7139   -1.3793    1.4261 H   0  0  0  0  0  0
    3.5258   -3.8036    0.9720 H   0  0  0  0  0  0
    4.6408   -3.0553   -0.1840 H   0  0  0  0  0  0
    2.9924   -3.4797   -0.6865 H   0  0  0  0  0  0
   -4.9135    2.1236    2.2266 H   0  0  0  0  0  0
  1  2  2  0  0  0
  1  3  1  0  0  0
  1  8  1  0  0  0
  2  4  1  0  0  0
  2 15  1  0  0  0
  3  5  2  0  0  0
  3 16  1  0  0  0
  4  6  2  0  0  0
  4 17  1  0  0  0
  5  6  1  0  0  0
  5 18  1  0  0  0
  6  7  1  0  0  0
  7 28  1  0  0  0
  8  9  1  0  0  0
  8 10  2  0  0  0
  9 11  1  0  0  0
 11 12  1  0  0  0
 11 19  1  0  0  0
 11 20  1  0  0  0
 12 13  1  0  0  0
 12 21  1  0  0  0
 12 22  1  0  0  0
 13 14  1  0  0  0
 13 23  1  0  0  0
 13 24  1  0  0  0
 14 25  1  0  0  0
 14 26  1  0  0  0
 14 27  1  0  0  0
M  END
>  <Name>
tox-94

>  <substance>
Butylparaben

>  <CASRN>
94-26-8

>  <from_NCI>
1

>  <RBA>
0.001000

>  <method>
RUC,RUC

>  <chemical_class>
Paraben

>  <set>
2

$$$$
tox-95
  Cerius2 12190218263D 1   1.00000                          
 Structure written by MMmdl.
 25 25  0  0  0  0  0  0  0  0999 V2000
    0.3768    0.2344    0.5108 C   0  0  0  0  0  0
    1.5408    0.7794   -0.1187 C   0  0  0  0  0  0
    0.4472   -1.0045    1.2060 C   0  0  0  0  0  0
   -1.0222    0.8974    0.5054 C   0  0  0  0  0  0
    2.7138   -0.0042    0.0163 C   0  0  0  0  0  0
    1.5892    1.8773   -0.7659 O   0  0  0  0  0  0
    1.6311   -1.7259    1.3020 C   0  0  0  0  0  0
   -1.6294    0.9874   -0.9118 C   0  0  0  0  0  0
   -1.0420    2.2321    1.2627 C   0  0  0  0  0  0
    2.7705   -1.2234    0.7043 C   0  0  0  0  0  0
   -3.1156    1.3263   -0.9115 C   0  0  0  0  0  0
   -0.4415   -1.4180    1.6843 H   0  0  0  0  0  0
   -1.6913    0.2370    1.0756 H   0  0  0  0  0  0
    3.6455    0.3481   -0.4390 H   0  0  0  0  0  0
    1.6587   -2.6710    1.8395 H   0  0  0  0  0  0
   -1.4988    0.0251   -1.4231 H   0  0  0  0  0  0
   -1.1028    1.7356   -1.5143 H   0  0  0  0  0  0
   -2.0687    2.5645    1.4460 H   0  0  0  0  0  0
   -0.5329    3.0256    0.7074 H   0  0  0  0  0  0
   -0.5503    2.1357    2.2371 H   0  0  0  0  0  0
    3.7100   -1.7693    0.7651 H   0  0  0  0  0  0
   -3.5070    1.2943   -1.9335 H   0  0  0  0  0  0
   -3.2974    2.3309   -0.5188 H   0  0  0  0  0  0
   -3.6829    0.6092   -0.3100 H   0  0  0  0  0  0
    2.3796    2.0029   -1.0521 H   0  0  0  0  0  0
  1  2  2  0  0  0
  1  3  1  0  0  0
  1  4  1  0  0  0
  2  5  1  0  0  0
  2  6  1  0  0  0
  3  7  2  0  0  0
  3 12  1  0  0  0
  4  8  1  0  0  0
  4  9  1  0  0  0
  4 13  1  0  0  0
  5 10  2  0  0  0
  5 14  1  0  0  0
  6 25  1  0  0  0
  7 10  1  0  0  0
  7 15  1  0  0  0
  8 11  1  0  0  0
  8 16  1  0  0  0
  8 17  1  0  0  0
  9 18  1  0  0  0
  9 19  1  0  0  0
  9 20  1  0  0  0
 10 21  1  0  0  0
 11 22  1  0  0  0
 11 23  1  0  0  0
 11 24  1  0  0  0
M  END
>  <Name>
tox-95

>  <substance>
2-sec -Butylphenol

>  <CASRN>
89-72-5

>  <from_NCI>
1

>  <RBA>
0.000300

>  <method>
RUC

>  <chemical_class>
Phenol

>  <set>
1

$$$$
tox-96
  Cerius2 12190218263D 1   1.00000                          
 Structure written by MMmdl.
 25 25  0  0  0  0  0  0  0  0999 V2000
   -0.3179    0.0162    0.0061 C   0  0  0  0  0  0
    0.4542    1.2259    0.0108 C   0  0  0  0  0  0
    0.3696   -1.2383    0.0098 C   0  0  0  0  0  0
   -1.8864   -0.0865   -0.0022 C   0  0  0  0  0  0
    1.8649    1.0503    0.0181 C   0  0  0  0  0  0
   -0.0029    2.4150    0.0092 O   0  0  0  0  0  0
    1.7568   -1.3429    0.0169 C   0  0  0  0  0  0
   -2.3559   -0.8600    1.2588 C   0  0  0  0  0  0
   -2.6954    1.2317   -0.0105 C   0  0  0  0  0  0
   -2.3428   -0.8667   -1.2641 C   0  0  0  0  0  0
    2.5106   -0.1901    0.0211 C   0  0  0  0  0  0
   -0.1891   -2.1742    0.0071 H   0  0  0  0  0  0
    2.5097    1.9362    0.0219 H   0  0  0  0  0  0
    2.2359   -2.3192    0.0194 H   0  0  0  0  0  0
   -3.4498   -0.9236    1.3006 H   0  0  0  0  0  0
   -2.0156   -0.3584    2.1724 H   0  0  0  0  0  0
   -1.9819   -1.8884    1.2884 H   0  0  0  0  0  0
   -3.7749    1.0353   -0.0171 H   0  0  0  0  0  0
   -2.4817    1.8317   -0.9018 H   0  0  0  0  0  0
   -2.4936    1.8357    0.8810 H   0  0  0  0  0  0
   -3.4363   -0.9285   -1.3182 H   0  0  0  0  0  0
   -1.9708   -1.8961   -1.2834 H   0  0  0  0  0  0
   -1.9910   -0.3712   -2.1767 H   0  0  0  0  0  0
    3.5973   -0.2397    0.0267 H   0  0  0  0  0  0
    0.6434    2.9670    0.0128 H   0  0  0  0  0  0
  1  2  2  0  0  0
  1  3  1  0  0  0
  1  4  1  0  0  0
  2  5  1  0  0  0
  2  6  1  0  0  0
  3  7  2  0  0  0
  3 12  1  0  0  0
  4  8  1  0  0  0
  4  9  1  0  0  0
  4 10  1  0  0  0
  5 11  2  0  0  0
  5 13  1  0  0  0
  6 25  1  0  0  0
  7 11  1  0  0  0
  7 14  1  0  0  0
  8 15  1  0  0  0
  8 16  1  0  0  0
  8 17  1  0  0  0
  9 18  1  0  0  0
  9 19  1  0  0  0
  9 20  1  0  0  0
 10 21  1  0  0  0
 10 22  1  0  0  0
 10 23  1  0  0  0
 11 24  1  0  0  0
M  END
>  <Name>
tox-96

>  <substance>
2-tert -Butylphenol

>  <CASRN>
88-18-6

>  <from_NCI>
1

>  <RBA>
0.001000

>  <method>
RUC

>  <chemical_class>
Phenol

>  <set>
1

$$$$
tox-97
  Cerius2 12190218263D 1   1.00000                          
 Structure written by MMmdl.
 25 25  0  0  0  0  0  0  0  0999 V2000
   -0.0497   -0.5361   -0.0060 C   0  0  0  0  0  0
   -0.1035    0.8794   -0.0076 C   0  0  0  0  0  0
   -1.2720   -1.2229   -0.0124 C   0  0  0  0  0  0
    1.2761   -1.3230    0.0021 C   0  0  0  0  0  0
   -1.3003    1.6363   -0.0151 C   0  0  0  0  0  0
   -2.4760   -0.5270   -0.0199 C   0  0  0  0  0  0
    2.5388   -0.4317    0.0079 C   0  0  0  0  0  0
    1.3580   -2.2178   -1.2546 C   0  0  0  0  0  0
    1.3443   -2.2148    1.2618 C   0  0  0  0  0  0
   -2.4793    0.8722   -0.0212 C   0  0  0  0  0  0
   -1.3086    2.9086   -0.0163 O   0  0  0  0  0  0
    0.8331    1.4420   -0.0027 H   0  0  0  0  0  0
   -1.3044   -2.3111   -0.0115 H   0  0  0  0  0  0
   -3.4193   -1.0704   -0.0248 H   0  0  0  0  0  0
    3.4518   -1.0392    0.0135 H   0  0  0  0  0  0
    2.5747    0.2108    0.8954 H   0  0  0  0  0  0
    2.5843    0.2089   -0.8805 H   0  0  0  0  0  0
    2.3079   -2.7641   -1.2901 H   0  0  0  0  0  0
    1.2829   -1.6190   -2.1700 H   0  0  0  0  0  0
    0.5577   -2.9653   -1.2840 H   0  0  0  0  0  0
    2.2934   -2.7615    1.3086 H   0  0  0  0  0  0
    0.5433   -2.9618    1.2845 H   0  0  0  0  0  0
    1.2598   -1.6138    2.1749 H   0  0  0  0  0  0
   -3.4510    1.3740   -0.0273 H   0  0  0  0  0  0
   -2.1118    3.1867   -0.0211 H   0  0  0  0  0  0
  1  2  2  0  0  0
  1  3  1  0  0  0
  1  4  1  0  0  0
  2  5  1  0  0  0
  2 12  1  0  0  0
  3  6  2  0  0  0
  3 13  1  0  0  0
  4  7  1  0  0  0
  4  8  1  0  0  0
  4  9  1  0  0  0
  5 10  2  0  0  0
  5 11  1  0  0  0
  6 10  1  0  0  0
  6 14  1  0  0  0
  7 15  1  0  0  0
  7 16  1  0  0  0
  7 17  1  0  0  0
  8 18  1  0  0  0
  8 19  1  0  0  0
  8 20  1  0  0  0
  9 21  1  0  0  0
  9 22  1  0  0  0
  9 23  1  0  0  0
 10 24  1  0  0  0
 11 25  1  0  0  0
M  END
>  <Name>
tox-97

>  <substance>
3-tert -Butylphenol

>  <CASRN>
585-34-2

>  <from_NCI>
1

>  <RBA>
0.000700

>  <method>
RUC

>  <chemical_class>
Phenol

>  <set>
2

$$$$
tox-98
  Cerius2 12190218263D 1   1.00000                          
 Structure written by MMmdl.
 25 25  0  0  0  0  0  0  0  0999 V2000
   -0.0286   -0.4511    1.2213 C   0  0  0  0  0  0
   -1.1346    0.3495    0.9347 C   0  0  0  0  0  0
    1.1544    0.2000    1.5842 C   0  0  0  0  0  0
   -0.0509   -1.9702    1.1388 C   0  0  0  0  0  0
   -1.0532    1.7525    1.0231 C   0  0  0  0  0  0
    1.2153    1.6030    1.6671 C   0  0  0  0  0  0
    0.5223   -2.4905   -0.1974 C   0  0  0  0  0  0
   -1.4072   -2.6043    1.4723 C   0  0  0  0  0  0
    0.1180    2.4390    1.3933 C   0  0  0  0  0  0
   -0.3188   -2.1909   -1.4320 C   0  0  0  0  0  0
    0.1798    3.7068    1.4715 O   0  0  0  0  0  0
   -2.0827   -0.0888    0.6294 H   0  0  0  0  0  0
    2.0520   -0.3753    1.8110 H   0  0  0  0  0  0
    0.6293   -2.3277    1.9262 H   0  0  0  0  0  0
   -1.9579    2.3205    0.7859 H   0  0  0  0  0  0
    2.1719    2.0457    1.9599 H   0  0  0  0  0  0
    0.6480   -3.5784   -0.1258 H   0  0  0  0  0  0
    1.5263   -2.0759   -0.3532 H   0  0  0  0  0  0
   -1.3233   -3.6964    1.4953 H   0  0  0  0  0  0
   -2.1839   -2.3488    0.7453 H   0  0  0  0  0  0
   -1.7562   -2.2771    2.4582 H   0  0  0  0  0  0
    0.1746   -2.5938   -2.3228 H   0  0  0  0  0  0
   -0.4441   -1.1151   -1.5830 H   0  0  0  0  0  0
   -1.3082   -2.6523   -1.3682 H   0  0  0  0  0  0
    0.9627    3.9382    1.7081 H   0  0  0  0  0  0
  1  2  2  0  0  0
  1  3  1  0  0  0
  1  4  1  0  0  0
  2  5  1  0  0  0
  2 12  1  0  0  0
  3  6  2  0  0  0
  3 13  1  0  0  0
  4  7  1  0  0  0
  4  8  1  0  0  0
  4 14  1  0  0  0
  5  9  2  0  0  0
  5 15  1  0  0  0
  6  9  1  0  0  0
  6 16  1  0  0  0
  7 10  1  0  0  0
  7 17  1  0  0  0
  7 18  1  0  0  0
  8 19  1  0  0  0
  8 20  1  0  0  0
  8 21  1  0  0  0
  9 11  1  0  0  0
 10 22  1  0  0  0
 10 23  1  0  0  0
 10 24  1  0  0  0
 11 25  1  0  0  0
M  END
>  <Name>
tox-98

>  <substance>
4-sec -Butylphenol

>  <CASRN>
99-71-8

>  <from_NCI>
1

>  <RBA>
0.000400

>  <method>
RUC

>  <chemical_class>
Phenol

>  <set>
2

$$$$
tox-99
  Cerius2 12190218263D 1   1.00000                          
 Structure written by MMmdl.
 25 25  0  0  0  0  0  0  0  0999 V2000
   -0.0515   -2.0088    0.0022 C   0  0  0  0  0  0
   -0.0090   -0.4718   -0.0058 C   0  0  0  0  0  0
   -0.7916   -2.5164   -1.2546 C   0  0  0  0  0  0
   -0.7964   -2.5032    1.2614 C   0  0  0  0  0  0
    1.3452   -2.6708    0.0084 C   0  0  0  0  0  0
    1.1817    0.2608   -0.0077 C   0  0  0  0  0  0
   -1.1950    0.2753   -0.0119 C   0  0  0  0  0  0
    1.1765    1.6708   -0.0153 C   0  0  0  0  0  0
   -1.1807    1.6836   -0.0195 C   0  0  0  0  0  0
    0.0016    2.4419   -0.0216 C   0  0  0  0  0  0
    0.0085    3.7134   -0.0285 O   0  0  0  0  0  0
   -0.8066   -3.6120   -1.2894 H   0  0  0  0  0  0
   -0.3043   -2.1599   -2.1699 H   0  0  0  0  0  0
   -1.8339   -2.1803   -1.2849 H   0  0  0  0  0  0
   -0.8119   -3.5984    1.3074 H   0  0  0  0  0  0
   -1.8387   -2.1666    1.2843 H   0  0  0  0  0  0
   -0.3125   -2.1375    2.1748 H   0  0  0  0  0  0
    1.2643   -3.7645    0.0140 H   0  0  0  0  0  0
    1.9225   -2.3858    0.8957 H   0  0  0  0  0  0
    1.9259   -2.3952   -0.8796 H   0  0  0  0  0  0
    2.1528   -0.2302   -0.0033 H   0  0  0  0  0  0
   -2.1647   -0.2216   -0.0111 H   0  0  0  0  0  0
    2.1492    2.1720   -0.0163 H   0  0  0  0  0  0
   -2.1489    2.1929   -0.0241 H   0  0  0  0  0  0
   -0.7913    4.0011   -0.0315 H   0  0  0  0  0  0
  1  2  1  0  0  0
  1  3  1  0  0  0
  1  4  1  0  0  0
  1  5  1  0  0  0
  2  6  2  0  0  0
  2  7  1  0  0  0
  3 12  1  0  0  0
  3 13  1  0  0  0
  3 14  1  0  0  0
  4 15  1  0  0  0
  4 16  1  0  0  0
  4 17  1  0  0  0
  5 18  1  0  0  0
  5 19  1  0  0  0
  5 20  1  0  0  0
  6  8  1  0  0  0
  6 21  1  0  0  0
  7  9  2  0  0  0
  7 22  1  0  0  0
  8 10  2  0  0  0
  8 23  1  0  0  0
  9 10  1  0  0  0
  9 24  1  0  0  0
 10 11  1  0  0  0
 11 25  1  0  0  0
M  END
>  <Name>
tox-99

>  <substance>
4-tert -Butylphenol

>  <CASRN>
98-54-4

>  <from_NCI>
1

>  <RBA>
0.000300

>  <method>
hERa,RUC,RUC

>  <chemical_class>
Phenol

>  <set>
2

$$$$
tox-100
  Cerius2 12190218263D 1   1.00000                          
 Structure written by MMmdl.
 48 48  0  0  0  0  0  0  0  0999 V2000
    1.8712    1.3620   -0.9508 C   0  0  0  0  0  0
    2.9990    1.0063   -1.7012 C   0  0  0  0  0  0
    1.0543    0.3344   -0.2725 C   0  0  0  0  0  0
    1.5520    2.7169   -0.7720 C   0  0  0  0  0  0
    3.8015    2.0064   -2.2719 C   0  0  0  0  0  0
    3.3151   -0.4107   -1.9732 C   0  0  0  0  0  0
   -0.2566    0.5839   -0.5023 O   0  0  0  0  0  0
    1.5155   -0.5880    0.3807 O   0  0  0  0  0  0
    2.3545    3.7065   -1.3432 C   0  0  0  0  0  0
    3.4782    3.3521   -2.0890 C   0  0  0  0  0  0
    4.6301   -0.6253   -1.7256 O   0  0  0  0  0  0
    2.4980   -1.2345   -2.3530 O   0  0  0  0  0  0
   -1.1485   -0.3620    0.1031 C   0  0  0  0  0  0
    5.0681   -1.9765   -1.9421 C   0  0  0  0  0  0
   -2.5929    0.0068   -0.1976 C   0  0  0  0  0  0
    6.5563   -2.0475   -1.6194 C   0  0  0  0  0  0
   -3.4335   -0.9036    0.3788 O   0  0  0  0  0  0
   -2.9596    0.9748   -0.8570 O   0  0  0  0  0  0
    7.1105   -3.4546   -1.8227 C   0  0  0  0  0  0
   -4.8326   -0.6556    0.1615 C   0  0  0  0  0  0
    8.5946   -3.5206   -1.5006 C   0  0  0  0  0  0
   -5.6225   -1.7555    0.8627 C   0  0  0  0  0  0
   -7.1266   -1.5700    0.6852 C   0  0  0  0  0  0
   -7.9098   -2.6693    1.3846 C   0  0  0  0  0  0
    0.6892    3.0115   -0.1770 H   0  0  0  0  0  0
    4.6714    1.7456   -2.8724 H   0  0  0  0  0  0
    2.1058    4.7572   -1.2011 H   0  0  0  0  0  0
    4.1015    4.1264   -2.5341 H   0  0  0  0  0  0
   -1.0110   -0.3478    1.1897 H   0  0  0  0  0  0
   -0.9556   -1.3577   -0.3107 H   0  0  0  0  0  0
    4.8934   -2.2514   -2.9888 H   0  0  0  0  0  0
    4.5051   -2.6503   -1.2858 H   0  0  0  0  0  0
    6.7191   -1.7205   -0.5847 H   0  0  0  0  0  0
    7.0984   -1.3305   -2.2487 H   0  0  0  0  0  0
    6.9532   -3.7703   -2.8606 H   0  0  0  0  0  0
    6.5717   -4.1631   -1.1827 H   0  0  0  0  0  0
   -5.0406   -0.6675   -0.9147 H   0  0  0  0  0  0
   -5.0963    0.3238    0.5771 H   0  0  0  0  0  0
    8.9710   -4.5369   -1.6540 H   0  0  0  0  0  0
    8.7828   -3.2423   -0.4587 H   0  0  0  0  0  0
    9.1664   -2.8456   -2.1454 H   0  0  0  0  0  0
   -5.3638   -1.7644    1.9290 H   0  0  0  0  0  0
   -5.3108   -2.7318    0.4708 H   0  0  0  0  0  0
   -7.3788   -1.5718   -0.3816 H   0  0  0  0  0  0
   -7.4322   -0.5979    1.0892 H   0  0  0  0  0  0
   -8.9846   -2.5166    1.2450 H   0  0  0  0  0  0
   -7.7041   -2.6743    2.4598 H   0  0  0  0  0  0
   -7.6510   -3.6532    0.9804 H   0  0  0  0  0  0
  1  2  2  0  0  0
  1  3  1  0  0  0
  1  4  1  0  0  0
  2  5  1  0  0  0
  2  6  1  0  0  0
  3  7  1  0  0  0
  3  8  2  0  0  0
  4  9  2  0  0  0
  4 25  1  0  0  0
  5 10  2  0  0  0
  5 26  1  0  0  0
  6 11  1  0  0  0
  6 12  2  0  0  0
  7 13  1  0  0  0
  9 10  1  0  0  0
  9 27  1  0  0  0
 10 28  1  0  0  0
 11 14  1  0  0  0
 13 15  1  0  0  0
 13 29  1  0  0  0
 13 30  1  0  0  0
 14 16  1  0  0  0
 14 31  1  0  0  0
 14 32  1  0  0  0
 15 17  1  0  0  0
 15 18  2  0  0  0
 16 19  1  0  0  0
 16 33  1  0  0  0
 16 34  1  0  0  0
 17 20  1  0  0  0
 19 21  1  0  0  0
 19 35  1  0  0  0
 19 36  1  0  0  0
 20 22  1  0  0  0
 20 37  1  0  0  0
 20 38  1  0  0  0
 21 39  1  0  0  0
 21 40  1  0  0  0
 21 41  1  0  0  0
 22 23  1  0  0  0
 22 42  1  0  0  0
 22 43  1  0  0  0
 23 24  1  0  0  0
 23 44  1  0  0  0
 23 45  1  0  0  0
 24 46  1  0  0  0
 24 47  1  0  0  0
 24 48  1  0  0  0
M  END
>  <Name>
tox-100

>  <substance>
Butyl phthalyl n -butyl glycolate

>  <CASRN>
85-70-1

>  <from_NCI>
1

>  <RBA>
0.000000

>  <method>
hERa-FP

>  <chemical_class>
Phthalate

>  <set>
0

$$$$
tox-101
  Cerius2 12190218263D 1   1.00000                          
 Structure written by MMmdl.
 24 25  0  0  0  0  0  0  0  0999 V2000
    0.4275    0.6569    0.0160 C   0  0  0  0  0  0
    0.5541   -0.6889    0.1893 C   0  0  0  0  0  0
   -0.8095    1.3448    0.1585 C   0  0  0  0  0  0
    1.6862    1.0909   -0.2939 N   0  0  0  0  0  0
   -0.5174   -1.4842    0.5214 N   0  0  0  0  0  0
    1.8370   -1.1127    0.0004 N   0  0  0  0  0  0
   -1.8746    0.4892    0.4760 N   0  0  0  0  0  0
   -0.9273    2.5623    0.0218 O   0  0  0  0  0  0
    2.5033   -0.0111   -0.2925 C   0  0  0  0  0  0
    2.0973    2.4449   -0.5732 C   0  0  0  0  0  0
   -1.7780   -0.9015    0.6841 C   0  0  0  0  0  0
   -0.3313   -2.9152    0.7070 C   0  0  0  0  0  0
   -3.1747    1.1183    0.6293 C   0  0  0  0  0  0
   -2.7635   -1.5789    1.0016 O   0  0  0  0  0  0
    3.5637    0.0537   -0.5101 H   0  0  0  0  0  0
    3.1682    2.4642   -0.7911 H   0  0  0  0  0  0
    1.8878    3.0587    0.3062 H   0  0  0  0  0  0
    1.5373    2.8052   -1.4397 H   0  0  0  0  0  0
   -1.2692   -3.4196    0.9529 H   0  0  0  0  0  0
    0.3791   -3.0786    1.5235 H   0  0  0  0  0  0
    0.0659   -3.3464   -0.2174 H   0  0  0  0  0  0
   -3.9896    0.3919    0.6747 H   0  0  0  0  0  0
   -3.3553    1.8001   -0.2082 H   0  0  0  0  0  0
   -3.1661    1.7048    1.5538 H   0  0  0  0  0  0
  1  2  2  0  0  0
  1  3  1  0  0  0
  1  4  1  0  0  0
  2  5  1  0  0  0
  2  6  1  0  0  0
  3  7  1  0  0  0
  3  8  2  0  0  0
  4  9  1  0  0  0
  4 10  1  0  0  0
  5 11  1  0  0  0
  5 12  1  0  0  0
  6  9  2  0  0  0
  7 11  1  0  0  0
  7 13  1  0  0  0
  9 15  1  0  0  0
 10 16  1  0  0  0
 10 17  1  0  0  0
 10 18  1  0  0  0
 11 14  2  0  0  0
 12 19  1  0  0  0
 12 20  1  0  0  0
 12 21  1  0  0  0
 13 22  1  0  0  0
 13 23  1  0  0  0
 13 24  1  0  0  0
M  END
>  <Name>
tox-101

>  <substance>
Caffeine

>  <CASRN>
58-08-2

>  <from_NCI>
1

>  <RBA>
0.000000

>  <method>
RUC

>  <chemical_class>
Purine

>  <set>
2

$$$$
tox-102
  Cerius2 12190218263D 1   1.00000                          
 Structure written by MMmdl.
 26 27  0  0  0  0  0  0  0  0999 V2000
    0.0907   -0.3424   -2.1898 C   0  0  0  0  0  0
    1.3803    0.2287   -2.2207 C   0  0  0  0  0  0
   -0.0019   -1.7534   -2.1558 C   0  0  0  0  0  0
   -1.0991    0.4164   -2.1887 C   0  0  0  0  0  0
    1.5294    1.6335   -2.2734 O   0  0  0  0  0  0
    2.5429   -0.5421   -2.2488 C   0  0  0  0  0  0
    1.1730   -2.5273   -2.1656 C   0  0  0  0  0  0
   -1.2670   -2.3619   -2.1158 C   0  0  0  0  0  0
   -2.3482   -0.2054   -2.1497 C   0  0  0  0  0  0
    1.7290    2.4121   -1.1231 C   0  0  0  0  0  0
    2.4341   -1.9271   -2.2150 C   0  0  0  0  0  0
   -2.4316   -1.5931   -2.1122 C   0  0  0  0  0  0
    1.7158    1.7512    0.0774 N   0  0  0  0  0  0
    1.8983    3.6265   -1.2241 O   0  0  0  0  0  0
    1.9074    2.4348    1.3302 C   0  0  0  0  0  0
   -1.0624    1.5044   -2.2198 H   0  0  0  0  0  0
    3.5218   -0.0714   -2.2929 H   0  0  0  0  0  0
    1.1138   -3.6157   -2.1400 H   0  0  0  0  0  0
   -1.3561   -3.4478   -2.0883 H   0  0  0  0  0  0
   -3.2556    0.3960   -2.1488 H   0  0  0  0  0  0
    3.3298   -2.5457   -2.2291 H   0  0  0  0  0  0
   -3.4047   -2.0804   -2.0817 H   0  0  0  0  0  0
    1.5634    0.7505    0.1007 H   0  0  0  0  0  0
    1.8266    1.7098    2.1432 H   0  0  0  0  0  0
    1.1432    3.2088    1.4404 H   0  0  0  0  0  0
    2.8976    2.8982    1.3384 H   0  0  0  0  0  0
  1  2  2  0  0  0
  1  3  1  0  0  0
  1  4  1  0  0  0
  2  5  1  0  0  0
  2  6  1  0  0  0
  3  7  2  0  0  0
  3  8  1  0  0  0
  4  9  2  0  0  0
  4 16  1  0  0  0
  5 10  1  0  0  0
  6 11  2  0  0  0
  6 17  1  0  0  0
  7 11  1  0  0  0
  7 18  1  0  0  0
  8 12  2  0  0  0
  8 19  1  0  0  0
  9 12  1  0  0  0
  9 20  1  0  0  0
 10 13  1  0  0  0
 10 14  2  0  0  0
 11 21  1  0  0  0
 12 22  1  0  0  0
 13 15  1  0  0  0
 13 23  1  0  0  0
 15 24  1  0  0  0
 15 25  1  0  0  0
 15 26  1  0  0  0
M  END
>  <Name>
tox-102

>  <substance>
Carbaryl

>  <CASRN>
63-25-2

>  <from_NCI>
1

>  <RBA>
0.000000

>  <method>
RUC

>  <chemical_class>
Carbamate; Polycyclic aromatic hydrocarbon

>  <set>
2

$$$$
tox-103
  Cerius2 12190218263D 1   1.00000                          
 Structure written by MMmdl.
 31 32  0  0  0  0  0  0  0  0999 V2000
   -0.5439    1.3823    0.2758 C   0  0  0  0  0  0
   -0.2731    2.7385    0.2619 C   0  0  0  0  0  0
   -1.8042    0.9063   -0.0373 C   0  0  0  0  0  0
    0.5309    0.6045    0.6133 O   0  0  0  0  0  0
    1.1567    2.9692    0.5753 C   0  0  0  0  0  0
   -1.2599    3.6596   -0.0539 C   0  0  0  0  0  0
   -2.0945   -0.4537    0.0149 O   0  0  0  0  0  0
   -2.8231    1.8120   -0.3315 C   0  0  0  0  0  0
    1.5664    1.5485    1.0277 C   0  0  0  0  0  0
   -2.5452    3.1879   -0.3450 C   0  0  0  0  0  0
   -1.6587   -1.1547   -1.0979 C   0  0  0  0  0  0
    2.8748    1.1124    0.3675 C   0  0  0  0  0  0
    1.6929    1.4554    2.5531 C   0  0  0  0  0  0
   -1.9319   -2.4807   -0.9318 N   0  0  0  0  0  0
   -1.1243   -0.6737   -2.0916 O   0  0  0  0  0  0
   -1.6275   -3.4972   -1.9062 C   0  0  0  0  0  0
    1.3001    3.7199    1.3582 H   0  0  0  0  0  0
    1.6864    3.2845   -0.3302 H   0  0  0  0  0  0
   -1.0470    4.7258   -0.0748 H   0  0  0  0  0  0
   -3.8280    1.4603   -0.5533 H   0  0  0  0  0  0
   -3.3383    3.8950   -0.5855 H   0  0  0  0  0  0
    3.7017    1.7780    0.6354 H   0  0  0  0  0  0
    2.7753    1.1013   -0.7239 H   0  0  0  0  0  0
    3.1393    0.0906    0.6624 H   0  0  0  0  0  0
    2.4793    2.1166    2.9314 H   0  0  0  0  0  0
    1.9219    0.4292    2.8622 H   0  0  0  0  0  0
    0.7502    1.7224    3.0442 H   0  0  0  0  0  0
   -2.4009   -2.7480   -0.0720 H   0  0  0  0  0  0
   -1.2009   -4.3570   -1.3840 H   0  0  0  0  0  0
   -0.9223   -3.1295   -2.6554 H   0  0  0  0  0  0
   -2.5597   -3.7947   -2.3926 H   0  0  0  0  0  0
  1  2  2  0  0  0
  1  3  1  0  0  0
  1  4  1  0  0  0
  2  5  1  0  0  0
  2  6  1  0  0  0
  3  7  1  0  0  0
  3  8  2  0  0  0
  4  9  1  0  0  0
  5  9  1  0  0  0
  5 17  1  0  0  0
  5 18  1  0  0  0
  6 10  2  0  0  0
  6 19  1  0  0  0
  7 11  1  0  0  0
  8 10  1  0  0  0
  8 20  1  0  0  0
  9 12  1  0  0  0
  9 13  1  0  0  0
 10 21  1  0  0  0
 11 14  1  0  0  0
 11 15  2  0  0  0
 12 22  1  0  0  0
 12 23  1  0  0  0
 12 24  1  0  0  0
 13 25  1  0  0  0
 13 26  1  0  0  0
 13 27  1  0  0  0
 14 16  1  0  0  0
 14 28  1  0  0  0
 16 29  1  0  0  0
 16 30  1  0  0  0
 16 31  1  0  0  0
M  END
>  <Name>
tox-103

>  <substance>
Carbofuran

>  <CASRN>
1563-66-2

>  <from_NCI>
1

>  <RBA>
0.000000

>  <method>
RUC

>  <chemical_class>
Carbamate

>  <set>
2

$$$$
tox-105
  Cerius2 12190218263D 1   1.00000                          
 Structure written by MMmdl.
 35 37  0  0  0  0  0  0  0  0999 V2000
   -0.4993   -0.0981   -0.8852 O   0  0  0  0  0  0
   -1.7612   -0.6142   -0.7749 C   0  0  0  0  0  0
   -2.1141   -1.6684    0.0802 C   0  0  0  0  0  0
    0.5778   -0.9217   -0.3894 C   0  0  0  0  0  0
   -1.0272   -2.3072    0.9351 C   0  0  0  0  0  0
   -3.4538   -2.1517    0.1153 C   0  0  0  0  0  0
    1.8268   -0.0483   -0.5252 C   0  0  0  0  0  0
    0.2561   -1.4344    1.0596 C   0  0  0  0  0  0
   -2.7261    0.0191   -1.5704 C   0  0  0  0  0  0
   -4.3671   -1.4607   -0.7335 C   0  0  0  0  0  0
    1.9811    1.1537    0.1919 C   0  0  0  0  0  0
    3.1062    2.0271    0.0870 C   0  0  0  0  0  0
   -4.0699   -0.3724   -1.5891 C   0  0  0  0  0  0
    4.1524    1.6404   -0.8256 C   0  0  0  0  0  0
    2.8415   -0.4000   -1.4047 C   0  0  0  0  0  0
    3.9641    0.4250   -1.5393 C   0  0  0  0  0  0
   -3.8518   -3.1266    0.8372 O   0  0  0  0  0  0
    1.2148   -2.2228    1.5480 O   0  0  0  0  0  0
    3.1326    3.0946    0.7940 O   0  0  0  0  0  0
    5.2190    2.3204   -1.0242 O   0  0  0  0  0  0
   -4.9469    0.1967   -2.3143 O   0  0  0  0  0  0
    0.6773   -1.7758   -1.0772 H   0  0  0  0  0  0
   -0.7995   -3.2845    0.4825 H   0  0  0  0  0  0
   -1.4187   -2.4933    1.9453 H   0  0  0  0  0  0
   -0.0534   -0.5456    1.6321 H   0  0  0  0  0  0
   -2.3992    0.8482   -2.2033 H   0  0  0  0  0  0
   -5.4109   -1.8079   -0.7223 H   0  0  0  0  0  0
    1.1703    1.4330    0.8733 H   0  0  0  0  0  0
    2.7793   -1.3124   -1.9952 H   0  0  0  0  0  0
    4.7350    0.0974   -2.2447 H   0  0  0  0  0  0
   -4.6828   -3.2525    0.7101 H   0  0  0  0  0  0
    1.0014   -2.4768    2.3306 H   0  0  0  0  0  0
    3.8514    3.5204    0.6374 H   0  0  0  0  0  0
    5.7057    1.9232   -1.5968 H   0  0  0  0  0  0
   -5.7009   -0.1763   -2.1923 H   0  0  0  0  0  0
  1  2  1  0  0  0
  1  4  1  0  0  0
  2  3  2  0  0  0
  2  9  1  0  0  0
  3  5  1  0  0  0
  3  6  1  0  0  0
  4  7  1  0  0  0
  4  8  1  0  0  0
  4 22  1  0  0  0
  5  8  1  0  0  0
  5 23  1  0  0  0
  5 24  1  0  0  0
  6 10  2  0  0  0
  6 17  1  0  0  0
  7 11  2  0  0  0
  7 15  1  0  0  0
  8 18  1  0  0  0
  8 25  1  0  0  0
  9 13  2  0  0  0
  9 26  1  0  0  0
 10 13  1  0  0  0
 10 27  1  0  0  0
 11 12  1  0  0  0
 11 28  1  0  0  0
 12 14  2  0  0  0
 12 19  1  0  0  0
 13 21  1  0  0  0
 14 16  1  0  0  0
 14 20  1  0  0  0
 15 16  2  0  0  0
 15 29  1  0  0  0
 16 30  1  0  0  0
 17 31  1  0  0  0
 18 32  1  0  0  0
 19 33  1  0  0  0
 20 34  1  0  0  0
 21 35  1  0  0  0
M  END
>  <Name>
tox-105

>  <substance>
()-Catechin

>  <CASRN>
7295-85-4

>  <from_NCI>
1

>  <RBA>
0.000000

>  <method>
RUC

>  <chemical_class>
Flavanone

>  <set>
0

$$$$
tox-106
  Cerius2 12190218263D 1   1.00000                          
 Structure written by MMmdl.
 28 29  0  0  0  0  0  0  0  0999 V2000
   -4.7781    0.5051   -1.5829 C   0  0  0  0  0  0
   -4.7794   -0.8667   -1.8228 C   0  0  0  0  0  0
   -3.5726   -1.5590   -1.8898 C   0  0  0  0  0  0
   -2.3631   -0.8807   -1.7112 C   0  0  0  0  0  0
   -2.3474    0.4969   -1.4530 C   0  0  0  0  0  0
   -3.5691    1.1833   -1.4046 C   0  0  0  0  0  0
   -1.1018    1.2617   -1.2859 C   0  0  0  0  0  0
    0.0310    0.7646   -0.7638 C   0  0  0  0  0  0
    1.2387    1.6286   -0.6410 C   0  0  0  0  0  0
    2.4072    1.0923    0.1112 C   0  0  0  0  0  0
    2.2617    0.2176    1.1960 C   0  0  0  0  0  0
    3.3899   -0.2481    1.8769 C   0  0  0  0  0  0
    4.6639    0.1615    1.4851 C   0  0  0  0  0  0
    4.8151    1.0428    0.4160 C   0  0  0  0  0  0
    3.6906    1.5115   -0.2668 C   0  0  0  0  0  0
    1.2973    2.7407   -1.1643 O   0  0  0  0  0  0
   -5.7189    1.0509   -1.5358 H   0  0  0  0  0  0
   -5.7206   -1.3955   -1.9629 H   0  0  0  0  0  0
   -3.5700   -2.6298   -2.0868 H   0  0  0  0  0  0
   -1.4368   -1.4474   -1.7883 H   0  0  0  0  0  0
   -3.5938    2.2569   -1.2201 H   0  0  0  0  0  0
   -1.1469    2.3044   -1.5983 H   0  0  0  0  0  0
    0.1065   -0.2623   -0.4277 H   0  0  0  0  0  0
    1.2805   -0.0992    1.5416 H   0  0  0  0  0  0
    3.2732   -0.9278    2.7195 H   0  0  0  0  0  0
    5.5406   -0.2027    2.0186 H   0  0  0  0  0  0
    5.8095    1.3670    0.1136 H   0  0  0  0  0  0
    3.8235    2.1999   -1.0997 H   0  0  0  0  0  0
  1  2  2  0  0  0
  1  6  1  0  0  0
  1 17  1  0  0  0
  2  3  1  0  0  0
  2 18  1  0  0  0
  3  4  2  0  0  0
  3 19  1  0  0  0
  4  5  1  0  0  0
  4 20  1  0  0  0
  5  6  2  0  0  0
  5  7  1  0  0  0
  6 21  1  0  0  0
  7  8  2  0  0  0
  7 22  1  0  0  0
  8  9  1  0  0  0
  8 23  1  0  0  0
  9 10  1  0  0  0
  9 16  2  0  0  0
 10 11  2  0  0  0
 10 15  1  0  0  0
 11 12  1  0  0  0
 11 24  1  0  0  0
 12 13  2  0  0  0
 12 25  1  0  0  0
 13 14  1  0  0  0
 13 26  1  0  0  0
 14 15  2  0  0  0
 14 27  1  0  0  0
 15 28  1  0  0  0
M  END
>  <Name>
tox-106

>  <substance>
Chalcone

>  <CASRN>
94-41-7

>  <from_NCI>
1

>  <RBA>
0.002000

>  <method>
RUC

>  <chemical_class>
Chalconoid

>  <set>
0

$$$$
tox-107
  Cerius2 12190218263D 1   1.00000                          
 Structure written by MMmdl.
 24 26  0  0  0  0  0  0  0  0999 V2000
    0.1209   -1.0551    0.9667 C   0  0  0  0  0  0
    0.2549    0.4870    0.8113 C   0  0  0  0  0  0
   -1.3981   -1.2787    0.7341 C   0  0  0  0  0  0
    1.0650   -1.2711    2.1257 C   0  0  0  0  0  0
   -1.0268    0.8497    0.0379 C   0  0  0  0  0  0
    1.7332    0.5671    0.5211 C   0  0  0  0  0  0
   -2.0810    0.1052    0.9710 C   0  0  0  0  0  0
   -1.4624   -1.2615   -0.8004 C   0  0  0  0  0  0
   -2.0753   -2.6729    1.5406 Cl  0  0  0  0  0  0
    2.2734   -0.3573    1.6811 C   0  0  0  0  0  0
   -1.1748   -0.0113   -1.2023 C   0  0  0  0  0  0
   -1.2962    2.5736   -0.1609 Cl  0  0  0  0  0  0
    2.3764    2.2177    0.6051 Cl  0  0  0  0  0  0
   -2.1351    0.6037    2.7063 Cl  0  0  0  0  0  0
   -3.8061    0.2106    0.4028 Cl  0  0  0  0  0  0
   -1.6757   -2.6421   -1.7648 Cl  0  0  0  0  0  0
    3.6560   -1.3351    1.1113 Cl  0  0  0  0  0  0
   -0.9575    0.5507   -2.7871 Cl  0  0  0  0  0  0
    0.6317   -1.5887    0.1434 H   0  0  0  0  0  0
    0.1622    0.9967    1.7826 H   0  0  0  0  0  0
    1.3395   -2.3212    2.2620 H   0  0  0  0  0  0
    0.6383   -0.9030    3.0653 H   0  0  0  0  0  0
    1.9705    0.1708   -0.4727 H   0  0  0  0  0  0
    2.6236    0.2194    2.5441 H   0  0  0  0  0  0
  1  2  1  0  0  0
  1  3  1  0  0  0
  1  4  1  0  0  0
  1 19  1  0  0  0
  2  5  1  0  0  0
  2  6  1  0  0  0
  2 20  1  0  0  0
  3  7  1  0  0  0
  3  8  1  0  0  0
  3  9  1  0  0  0
  4 10  1  0  0  0
  4 21  1  0  0  0
  4 22  1  0  0  0
  5  7  1  0  0  0
  5 11  1  0  0  0
  5 12  1  0  0  0
  6 10  1  0  0  0
  6 13  1  0  0  0
  6 23  1  0  0  0
  7 14  1  0  0  0
  7 15  1  0  0  0
  8 11  2  0  0  0
  8 16  1  0  0  0
 10 17  1  0  0  0
 10 24  1  0  0  0
 11 18  1  0  0  0
M  END
>  <Name>
tox-107

>  <substance>
Chlordane

>  <CASRN>
57-74-9

>  <from_NCI>
1

>  <RBA>
0.000000

>  <method>
hERa

>  <chemical_class>
Organochlorine

>  <set>
0

$$$$
tox-108
  Cerius2 12190218263D 1   1.00000                          
 Structure written by MMmdl.
 24 26  0  0  0  0  0  0  0  0999 V2000
    0.1209   -1.0551    0.9667 C   0  0  0  0  0  0
    0.2549    0.4870    0.8113 C   0  0  0  0  0  0
   -1.3981   -1.2787    0.7341 C   0  0  0  0  0  0
    1.0650   -1.2711    2.1257 C   0  0  0  0  0  0
   -1.0268    0.8497    0.0379 C   0  0  0  0  0  0
    1.7332    0.5671    0.5211 C   0  0  0  0  0  0
   -2.0810    0.1052    0.9710 C   0  0  0  0  0  0
   -1.4624   -1.2615   -0.8004 C   0  0  0  0  0  0
   -2.0753   -2.6729    1.5406 Cl  0  0  0  0  0  0
    2.2734   -0.3573    1.6811 C   0  0  0  0  0  0
   -1.1748   -0.0113   -1.2023 C   0  0  0  0  0  0
   -1.2962    2.5736   -0.1609 Cl  0  0  0  0  0  0
    2.3764    2.2177    0.6051 Cl  0  0  0  0  0  0
   -2.1351    0.6037    2.7063 Cl  0  0  0  0  0  0
   -3.8061    0.2106    0.4028 Cl  0  0  0  0  0  0
   -1.6757   -2.6421   -1.7648 Cl  0  0  0  0  0  0
    3.6560   -1.3351    1.1113 Cl  0  0  0  0  0  0
   -0.9575    0.5507   -2.7871 Cl  0  0  0  0  0  0
    0.6317   -1.5887    0.1434 H   0  0  0  0  0  0
    0.1622    0.9967    1.7826 H   0  0  0  0  0  0
    1.3395   -2.3212    2.2620 H   0  0  0  0  0  0
    0.6383   -0.9030    3.0653 H   0  0  0  0  0  0
    1.9705    0.1708   -0.4727 H   0  0  0  0  0  0
    2.6236    0.2194    2.5441 H   0  0  0  0  0  0
  1  2  1  0  0  0
  1  3  1  0  0  0
  1  4  1  0  0  0
  1 19  1  0  0  0
  2  5  1  0  0  0
  2  6  1  0  0  0
  2 20  1  0  0  0
  3  7  1  0  0  0
  3  8  1  0  0  0
  3  9  1  0  0  0
  4 10  1  0  0  0
  4 21  1  0  0  0
  4 22  1  0  0  0
  5  7  1  0  0  0
  5 11  1  0  0  0
  5 12  1  0  0  0
  6 10  1  0  0  0
  6 13  1  0  0  0
  6 23  1  0  0  0
  7 14  1  0  0  0
  7 15  1  0  0  0
  8 11  2  0  0  0
  8 16  1  0  0  0
 10 17  1  0  0  0
 10 24  1  0  0  0
 11 18  1  0  0  0
M  END
>  <Name>
tox-108

>  <substance>
a-Chlordane

>  <CASRN>
5103-71-9

>  <from_NCI>
1

>  <RBA>
0.000000

>  <method>
RUC

>  <chemical_class>
Organochlorine

>  <set>
0

$$$$
tox-109
  Cerius2 12190218263D 1   1.00000                          
 Structure written by MMmdl.
 20 19  0  0  0  0  0  0  0  0999 V2000
    0.1731   -0.0460   -0.3980 C   0  0  0  0  0  0
    0.9798   -0.1310    0.9203 N   0  0  0  0  0  0
    1.0194   -0.0918   -1.6718 C   0  0  0  0  0  0
   -0.0154   -0.0700    2.0829 C   0  0  0  0  0  0
    1.7466   -1.4428    1.0203 C   0  0  0  0  0  0
    1.9445    1.0389    1.0594 C   0  0  0  0  0  0
   -0.0321    0.0136   -3.1164 Cl  0  0  0  0  0  0
   -0.3970    0.8901   -0.3525 H   0  0  0  0  0  0
   -0.5367   -0.8823   -0.3813 H   0  0  0  0  0  0
    1.5787   -1.0264   -1.7566 H   0  0  0  0  0  0
    1.7173    0.7467   -1.7281 H   0  0  0  0  0  0
    0.5419   -0.1295    3.0226 H   0  0  0  0  0  0
   -0.7034   -0.9160    1.9935 H   0  0  0  0  0  0
   -0.5601    0.8769    2.0220 H   0  0  0  0  0  0
    2.2036   -1.5023    2.0129 H   0  0  0  0  0  0
    2.5255   -1.4564    0.2539 H   0  0  0  0  0  0
    1.0431   -2.2672    0.8727 H   0  0  0  0  0  0
    2.4026    0.9942    2.0522 H   0  0  0  0  0  0
    1.3811    1.9686    0.9392 H   0  0  0  0  0  0
    2.7178    0.9527    0.2919 H   0  0  0  0  0  0
  1  2  1  0  0  0
  1  3  1  0  0  0
  1  8  1  0  0  0
  1  9  1  0  0  0
  2  4  1  0  0  0
  2  5  1  0  0  0
  2  6  1  0  0  0
  3  7  1  0  0  0
  3 10  1  0  0  0
  3 11  1  0  0  0
  4 12  1  0  0  0
  4 13  1  0  0  0
  4 14  1  0  0  0
  5 15  1  0  0  0
  5 16  1  0  0  0
  5 17  1  0  0  0
  6 18  1  0  0  0
  6 19  1  0  0  0
  6 20  1  0  0  0
M  END
>  <Name>
tox-109

>  <substance>
Chlormequat chloride

>  <CASRN>
999-81-5

>  <from_NCI>
1

>  <RBA>
0.000000

>  <method>
RBC

>  <chemical_class>
Organochlorine

>  <set>
2

$$$$
tox-110
  Cerius2 12190218263D 1   1.00000                          
 Structure written by MMmdl.
 22 22  0  0  0  0  0  0  0  0999 V2000
    0.2062    0.9253   -0.8247 C   0  0  0  0  0  0
   -0.7278    1.5326   -1.5496 N   0  0  0  0  0  0
    0.0189   -0.2290   -0.2161 N   0  0  0  0  0  0
    1.4030    1.5739   -0.7387 N   0  0  0  0  0  0
   -1.9031    0.9236   -1.6504 C   0  0  0  0  0  0
   -1.1926   -0.7352   -0.3919 C   0  0  0  0  0  0
    2.5935    1.1503   -0.0214 C   0  0  0  0  0  0
   -2.1995   -0.2280   -1.0861 N   0  0  0  0  0  0
   -2.8699    1.5343   -2.3902 N   0  0  0  0  0  0
   -1.4918   -2.2329    0.3758 Cl  0  0  0  0  0  0
    3.1677   -0.1461   -0.5842 C   0  0  0  0  0  0
    2.3564    1.0754    1.4837 C   0  0  0  0  0  0
    1.4402    2.4540   -1.2440 H   0  0  0  0  0  0
    3.3479    1.9303   -0.1861 H   0  0  0  0  0  0
   -3.7764    1.1011   -2.4894 H   0  0  0  0  0  0
   -2.6764    2.4188   -2.8367 H   0  0  0  0  0  0
    4.1401   -0.3635   -0.1291 H   0  0  0  0  0  0
    3.3120   -0.0709   -1.6675 H   0  0  0  0  0  0
    2.5169   -1.0049   -0.3934 H   0  0  0  0  0  0
    3.3001    0.9015    2.0119 H   0  0  0  0  0  0
    1.6738    0.2645    1.7560 H   0  0  0  0  0  0
    1.9283    2.0116    1.8583 H   0  0  0  0  0  0
  1  2  2  0  0  0
  1  3  1  0  0  0
  1  4  1  0  0  0
  2  5  1  0  0  0
  3  6  2  0  0  0
  4  7  1  0  0  0
  4 13  1  0  0  0
  5  8  2  0  0  0
  5  9  1  0  0  0
  6  8  1  0  0  0
  6 10  1  0  0  0
  7 11  1  0  0  0
  7 12  1  0  0  0
  7 14  1  0  0  0
  9 15  1  0  0  0
  9 16  1  0  0  0
 11 17  1  0  0  0
 11 18  1  0  0  0
 11 19  1  0  0  0
 12 20  1  0  0  0
 12 21  1  0  0  0
 12 22  1  0  0  0
M  END
>  <Name>
tox-110

>  <substance>
2-Chloro-4-amino-6-isopropylamino-1,3,5 triazine

>  <CASRN>
6190-65-4

>  <from_NCI>
1

>  <RBA>
0.000020

>  <method>
hERa-FP

>  <chemical_class>
Triazine

>  <set>
0

$$$$
tox-111
  Cerius2 12190218263D 1   1.00000                          
 Structure written by MMmdl.
 24 25  0  0  0  0  0  0  0  0999 V2000
    0.7282   -0.2186   -0.0258 C   0  0  0  0  0  0
    1.4902    0.7615   -0.6761 C   0  0  0  0  0  0
    2.9003    0.7215   -0.6411 C   0  0  0  0  0  0
    3.6332   -0.2787    0.0294 C   0  0  0  0  0  0
    2.8401   -1.2481    0.6669 C   0  0  0  0  0  0
    1.4333   -1.2273    0.6444 C   0  0  0  0  0  0
   -0.7429   -0.2368   -0.0151 C   0  0  0  0  0  0
   -1.4598   -1.1935   -0.7379 C   0  0  0  0  0  0
   -2.8666   -1.2169   -0.7102 C   0  0  0  0  0  0
   -3.6384   -0.3038    0.0324 C   0  0  0  0  0  0
   -2.8854    0.6436    0.7513 C   0  0  0  0  0  0
   -1.4787    0.6831    0.7358 C   0  0  0  0  0  0
    4.9041   -0.3032    0.0542 O   0  0  0  0  0  0
   -4.9095   -0.3331    0.0532 O   0  0  0  0  0  0
    0.7530    2.0522   -1.5720 Cl  0  0  0  0  0  0
    3.4461    1.5099   -1.1665 H   0  0  0  0  0  0
    3.3197   -2.0659    1.2131 H   0  0  0  0  0  0
    0.8934   -2.0160    1.1689 H   0  0  0  0  0  0
   -0.9351   -1.9368   -1.3375 H   0  0  0  0  0  0
   -3.3656   -1.9912   -1.3003 H   0  0  0  0  0  0
   -3.3999    1.3933    1.3595 H   0  0  0  0  0  0
   -0.9694    1.4448    1.3252 H   0  0  0  0  0  0
    5.1658   -0.9756    0.5034 H   0  0  0  0  0  0
   -5.1992    0.2909    0.5525 H   0  0  0  0  0  0
  1  2  2  0  0  0
  1  6  1  0  0  0
  1  7  1  0  0  0
  2  3  1  0  0  0
  2 15  1  0  0  0
  3  4  2  0  0  0
  3 16  1  0  0  0
  4  5  1  0  0  0
  4 13  1  0  0  0
  5  6  2  0  0  0
  5 17  1  0  0  0
  6 18  1  0  0  0
  7  8  2  0  0  0
  7 12  1  0  0  0
  8  9  1  0  0  0
  8 19  1  0  0  0
  9 10  2  0  0  0
  9 20  1  0  0  0
 10 11  1  0  0  0
 10 14  1  0  0  0
 11 12  2  0  0  0
 11 21  1  0  0  0
 12 22  1  0  0  0
 13 23  1  0  0  0
 14 24  1  0  0  0
M  END
>  <Name>
tox-111

>  <substance>
2'-Chloro-4,4'-biphenyldiol

>  <CASRN>
56858-70-9

>  <from_NCI>
1

>  <RBA>
1.100000

>  <method>
MUC

>  <chemical_class>
Organochlorine; Phenol

>  <set>
2

$$$$
tox-112
  Cerius2 12190218263D 1   1.00000                          
 Structure written by MMmdl.
 23 24  0  0  0  0  0  0  0  0999 V2000
   -0.6663    1.6239    0.6894 C   0  0  0  0  0  0
   -0.5016    0.4043    0.0196 C   0  0  0  0  0  0
   -1.8990    2.3081    0.6497 C   0  0  0  0  0  0
   -1.6108   -0.0939   -0.6756 C   0  0  0  0  0  0
    0.7562   -0.3578    0.0165 C   0  0  0  0  0  0
   -3.0294    1.8319   -0.0452 C   0  0  0  0  0  0
    0.6170    2.3407    1.6117 Cl  0  0  0  0  0  0
   -2.8315    0.6051   -0.7023 C   0  0  0  0  0  0
   -4.1356    2.4582   -0.0741 O   0  0  0  0  0  0
    1.8517    0.0596   -0.7570 C   0  0  0  0  0  0
    0.8855   -1.5318    0.7761 C   0  0  0  0  0  0
    2.0769   -2.2619    0.7691 C   0  0  0  0  0  0
    3.0431   -0.6705   -0.7641 C   0  0  0  0  0  0
    3.1550   -1.8303   -0.0005 C   0  0  0  0  0  0
   -1.9745    3.2553    1.1906 H   0  0  0  0  0  0
   -1.5395   -1.0385   -1.2152 H   0  0  0  0  0  0
   -3.6532    0.1556   -1.2679 H   0  0  0  0  0  0
    1.7820    0.9620   -1.3636 H   0  0  0  0  0  0
    0.0535   -1.8849    1.3848 H   0  0  0  0  0  0
    2.1617   -3.1686    1.3655 H   0  0  0  0  0  0
    3.8834   -0.3326   -1.3678 H   0  0  0  0  0  0
    4.0831   -2.3992   -0.0061 H   0  0  0  0  0  0
   -4.6968    2.0207   -0.5390 H   0  0  0  0  0  0
  1  2  2  0  0  0
  1  3  1  0  0  0
  1  7  1  0  0  0
  2  4  1  0  0  0
  2  5  1  0  0  0
  3  6  2  0  0  0
  3 15  1  0  0  0
  4  8  2  0  0  0
  4 16  1  0  0  0
  5 10  2  0  0  0
  5 11  1  0  0  0
  6  8  1  0  0  0
  6  9  1  0  0  0
  8 17  1  0  0  0
  9 23  1  0  0  0
 10 13  1  0  0  0
 10 18  1  0  0  0
 11 12  2  0  0  0
 11 19  1  0  0  0
 12 14  1  0  0  0
 12 20  1  0  0  0
 13 14  2  0  0  0
 13 21  1  0  0  0
 14 22  1  0  0  0
M  END
>  <Name>
tox-112

>  <substance>
2-Chloro-4-biphenylol

>  <CASRN>
23719-22-4

>  <from_NCI>
1

>  <RBA>
0.020000

>  <method>
MUC,RUC

>  <chemical_class>
Organochlorine; Phenol

>  <set>
0

$$$$
tox-113
  Cerius2 12190218263D 1   1.00000                          
 Structure written by MMmdl.
 23 24  0  0  0  0  0  0  0  0999 V2000
    4.4247    2.6364    0.0328 Cl  0  0  0  0  0  0
    2.9331    1.7782    0.0201 C   0  0  0  0  0  0
    1.7816    2.3950   -0.4588 C   0  0  0  0  0  0
    0.5694    1.6953   -0.4679 C   0  0  0  0  0  0
    0.4869    0.3707   -0.0007 C   0  0  0  0  0  0
   -0.7923   -0.3653   -0.0118 C   0  0  0  0  0  0
   -1.9771    0.2147    0.4526 C   0  0  0  0  0  0
   -3.1934   -0.4949    0.4387 C   0  0  0  0  0  0
   -3.3105   -1.8141   -0.0339 C   0  0  0  0  0  0
   -4.4125   -2.4480   -0.0437 O   0  0  0  0  0  0
   -2.1050   -2.3724   -0.4948 C   0  0  0  0  0  0
   -0.8802   -1.6776   -0.4872 C   0  0  0  0  0  0
    1.6674   -0.2271    0.4773 C   0  0  0  0  0  0
    2.8815    0.4693    0.4889 C   0  0  0  0  0  0
    1.8129    3.4169   -0.8294 H   0  0  0  0  0  0
   -0.3158    2.1971   -0.8582 H   0  0  0  0  0  0
   -1.9775    1.2307    0.8469 H   0  0  0  0  0  0
   -4.0783    0.0230    0.8203 H   0  0  0  0  0  0
   -2.0971   -3.3947   -0.8841 H   0  0  0  0  0  0
    0.0030   -2.1856   -0.8739 H   0  0  0  0  0  0
    1.6514   -1.2474    0.8599 H   0  0  0  0  0  0
    3.7760   -0.0200    0.8673 H   0  0  0  0  0  0
   -4.2889   -3.2262   -0.3625 H   0  0  0  0  0  0
  1  2  1  0  0  0
  2  3  2  0  0  0
  2 14  1  0  0  0
  3  4  1  0  0  0
  3 15  1  0  0  0
  4  5  2  0  0  0
  4 16  1  0  0  0
  5  6  1  0  0  0
  5 13  1  0  0  0
  6  7  2  0  0  0
  6 12  1  0  0  0
  7  8  1  0  0  0
  7 17  1  0  0  0
  8  9  2  0  0  0
  8 18  1  0  0  0
  9 10  1  0  0  0
  9 11  1  0  0  0
 10 23  1  0  0  0
 11 12  2  0  0  0
 11 19  1  0  0  0
 12 20  1  0  0  0
 13 14  2  0  0  0
 13 21  1  0  0  0
 14 22  1  0  0  0
M  END
>  <Name>
tox-113

>  <substance>
4-Chloro-4'-biphenylol

>  <CASRN>
28034-99-3

>  <from_NCI>
1

>  <RBA>
0.030000

>  <method>
MUC,MUC,RUC

>  <chemical_class>
Organochlorine; Phenol

>  <set>
1

$$$$
tox-114
  Cerius2 12190218263D 1   1.00000                          
 Structure written by MMmdl.
 16 16  0  0  0  0  0  0  0  0999 V2000
    0.5386    0.7451    0.0065 C   0  0  0  0  0  0
    1.2186   -0.4687    0.1252 C   0  0  0  0  0  0
   -0.8703    0.7215   -0.1056 C   0  0  0  0  0  0
    1.2595    2.0651   -0.0051 C   0  0  0  0  0  0
    0.5052   -1.6621    0.1308 C   0  0  0  0  0  0
    2.9390   -0.5412    0.2676 Cl  0  0  0  0  0  0
   -1.6396   -0.4622   -0.1051 C   0  0  0  0  0  0
   -0.8933   -1.6482    0.0175 C   0  0  0  0  0  0
   -2.9066   -0.4566   -0.2073 O   0  0  0  0  0  0
   -1.3910    1.6802   -0.1981 H   0  0  0  0  0  0
    0.5620    2.9034   -0.1058 H   0  0  0  0  0  0
    1.9534    2.1130   -0.8505 H   0  0  0  0  0  0
    1.8096    2.2072    0.9306 H   0  0  0  0  0  0
    1.0201   -2.6161    0.2225 H   0  0  0  0  0  0
   -1.4078   -2.6134    0.0270 H   0  0  0  0  0  0
   -3.1959   -1.2556   -0.1885 H   0  0  0  0  0  0
  1  2  2  0  0  0
  1  3  1  0  0  0
  1  4  1  0  0  0
  2  5  1  0  0  0
  2  6  1  0  0  0
  3  7  2  0  0  0
  3 10  1  0  0  0
  4 11  1  0  0  0
  4 12  1  0  0  0
  4 13  1  0  0  0
  5  8  2  0  0  0
  5 14  1  0  0  0
  7  8  1  0  0  0
  7  9  1  0  0  0
  8 15  1  0  0  0
  9 16  1  0  0  0
M  END
>  <Name>
tox-114

>  <substance>
4-Chloro-m -cresol

>  <CASRN>
59-50-7

>  <from_NCI>
1

>  <RBA>
0.000400

>  <method>
RUC

>  <chemical_class>
Organochlorine; Phenol

>  <set>
1

$$$$
tox-115
  Cerius2 12190218263D 1   1.00000                          
 Structure written by MMmdl.
 13 13  0  0  0  0  0  0  0  0999 V2000
    0.3824   -0.6301    0.0287 C   0  0  0  0  0  0
   -0.8059   -0.0398    0.0002 N   0  0  0  0  0  0
    1.5353    0.0077    0.0288 N   0  0  0  0  0  0
    0.4118   -1.9914    0.0601 N   0  0  0  0  0  0
   -0.8049    1.2869   -0.0299 C   0  0  0  0  0  0
    1.3993    1.3258   -0.0029 C   0  0  0  0  0  0
    0.2797    2.0349   -0.0332 N   0  0  0  0  0  0
   -2.0106    1.9199   -0.0595 N   0  0  0  0  0  0
    2.8531    2.2262   -0.0049 Cl  0  0  0  0  0  0
    1.2977   -2.4751    0.0824 H   0  0  0  0  0  0
   -0.4532   -2.5120    0.0610 H   0  0  0  0  0  0
   -2.0489    2.9284   -0.0827 H   0  0  0  0  0  0
   -2.8621    1.3774   -0.0577 H   0  0  0  0  0  0
  1  2  2  0  0  0
  1  3  1  0  0  0
  1  4  1  0  0  0
  2  5  1  0  0  0
  3  6  2  0  0  0
  4 10  1  0  0  0
  4 11  1  0  0  0
  5  7  2  0  0  0
  5  8  1  0  0  0
  6  7  1  0  0  0
  6  9  1  0  0  0
  8 12  1  0  0  0
  8 13  1  0  0  0
M  END
>  <Name>
tox-115

>  <substance>
2-Chloro-4,6-diamino-S -triazine

>  <CASRN>
3397-62-4

>  <from_NCI>
1

>  <RBA>
0.000300

>  <method>
RUC

>  <chemical_class>
Triazine

>  <set>
1

$$$$
tox-116
  Cerius2 12190218263D 1   1.00000                          
 Structure written by MMmdl.
 19 19  0  0  0  0  0  0  0  0999 V2000
    0.1195    0.2870    0.2886 C   0  0  0  0  0  0
    0.2494   -0.9857    0.6470 N   0  0  0  0  0  0
   -1.0436    0.8897    0.1258 N   0  0  0  0  0  0
    1.2803    0.9788    0.0864 N   0  0  0  0  0  0
   -0.8709   -1.6691    0.8470 C   0  0  0  0  0  0
   -2.0843    0.1015    0.3549 C   0  0  0  0  0  0
    1.2958    2.3683   -0.3084 C   0  0  0  0  0  0
   -2.0835   -1.1732    0.7148 N   0  0  0  0  0  0
   -0.7573   -2.9754    1.2150 N   0  0  0  0  0  0
   -3.6223    0.8226    0.1613 Cl  0  0  0  0  0  0
    2.7296    2.8516   -0.4474 C   0  0  0  0  0  0
    2.1437    0.4659    0.2244 H   0  0  0  0  0  0
    0.7823    2.9821    0.4407 H   0  0  0  0  0  0
    0.7799    2.4966   -1.2670 H   0  0  0  0  0  0
   -1.5876   -3.5267    1.3760 H   0  0  0  0  0  0
    0.1575   -3.3879    1.3252 H   0  0  0  0  0  0
    2.7503    3.9041   -0.7465 H   0  0  0  0  0  0
    3.2688    2.2699   -1.2026 H   0  0  0  0  0  0
    3.2706    2.7537    0.4998 H   0  0  0  0  0  0
  1  2  2  0  0  0
  1  3  1  0  0  0
  1  4  1  0  0  0
  2  5  1  0  0  0
  3  6  2  0  0  0
  4  7  1  0  0  0
  4 12  1  0  0  0
  5  8  2  0  0  0
  5  9  1  0  0  0
  6  8  1  0  0  0
  6 10  1  0  0  0
  7 11  1  0  0  0
  7 13  1  0  0  0
  7 14  1  0  0  0
  9 15  1  0  0  0
  9 16  1  0  0  0
 11 17  1  0  0  0
 11 18  1  0  0  0
 11 19  1  0  0  0
M  END
>  <Name>
tox-116

>  <substance>
2-Chloro-4-ethylamino-6-amino-1,3,5- triazine

>  <CASRN>
1007-28-9

>  <from_NCI>
1

>  <RBA>
0.000000

>  <method>
hERa-FP

>  <chemical_class>
Triazine

>  <set>
1

$$$$
tox-117
  Cerius2 12190218263D 1   1.00000                          
 Structure written by MMmdl.
 29 29  0  0  0  0  0  0  0  0999 V2000
   -0.6975    1.1333    0.0909 N   0  0  0  0  0  0
    0.4776    1.7215    0.2552 C   0  0  0  0  0  0
    1.6576    1.1539    0.4551 N   0  0  0  0  0  0
    1.6059   -0.1628    0.4874 C   0  0  0  0  0  0
    0.4862   -0.8640    0.3344 N   0  0  0  0  0  0
   -0.6377   -0.1833    0.1381 C   0  0  0  0  0  0
   -1.7714   -0.9251   -0.0149 N   0  0  0  0  0  0
    2.7919   -0.8096    0.6916 N   0  0  0  0  0  0
    2.8851   -2.2497    0.7518 C   0  0  0  0  0  0
    4.3273   -2.6661    0.9877 C   0  0  0  0  0  0
    0.4697    3.4301    0.2007 Cl  0  0  0  0  0  0
   -3.0722   -0.3703   -0.3606 C   0  0  0  0  0  0
   -4.1777   -1.3168    0.1565 C   0  0  0  0  0  0
   -3.1633   -0.1904   -1.8757 C   0  0  0  0  0  0
   -4.0651   -2.6260   -0.4181 O   0  0  0  0  0  0
   -1.6574   -1.9329   -0.0373 H   0  0  0  0  0  0
    3.6149   -0.2284    0.8022 H   0  0  0  0  0  0
    2.5337   -2.6932   -0.1870 H   0  0  0  0  0  0
    2.2628   -2.6373    1.5667 H   0  0  0  0  0  0
    4.4071   -3.7565    1.0344 H   0  0  0  0  0  0
    4.7061   -2.2540    1.9291 H   0  0  0  0  0  0
    4.9762   -2.3091    0.1808 H   0  0  0  0  0  0
   -3.2218    0.5990    0.1307 H   0  0  0  0  0  0
   -5.1676   -0.9192   -0.0909 H   0  0  0  0  0  0
   -4.1044   -1.4233    1.2444 H   0  0  0  0  0  0
   -4.1516    0.1828   -2.1635 H   0  0  0  0  0  0
   -2.9859   -1.1327   -2.4059 H   0  0  0  0  0  0
   -2.4178    0.5292   -2.2309 H   0  0  0  0  0  0
   -4.7939   -3.1482   -0.0204 H   0  0  0  0  0  0
  1  2  2  0  0  0
  1  6  1  0  0  0
  2  3  1  0  0  0
  2 11  1  0  0  0
  3  4  2  0  0  0
  4  5  1  0  0  0
  4  8  1  0  0  0
  5  6  2  0  0  0
  6  7  1  0  0  0
  7 12  1  0  0  0
  7 16  1  0  0  0
  8  9  1  0  0  0
  8 17  1  0  0  0
  9 10  1  0  0  0
  9 18  1  0  0  0
  9 19  1  0  0  0
 10 20  1  0  0  0
 10 21  1  0  0  0
 10 22  1  0  0  0
 12 13  1  0  0  0
 12 14  1  0  0  0
 12 23  1  0  0  0
 13 15  1  0  0  0
 13 24  1  0  0  0
 13 25  1  0  0  0
 14 26  1  0  0  0
 14 27  1  0  0  0
 14 28  1  0  0  0
 15 29  1  0  0  0
M  END
>  <Name>
tox-117

>  <substance>
2-Chloro-4-ethylamino-6-(1- hydroxyisopropyl)amino-1,3,5-triazine

>  <CASRN>
142179-80-4

>  <from_NCI>
0

>  <RBA>
0.000000

>  <method>
hERa-FP

>  <chemical_class>
Triazine

>  <set>
2

$$$$
tox-118
  Cerius2 12190218263D 1   1.00000                          
 Structure written by MMmdl.
 32 32  0  0  0  0  0  0  0  0999 V2000
   -1.8271    1.5674   -0.1545 N   0  0  0  0  0  0
   -1.0649    2.6489   -0.1034 C   0  0  0  0  0  0
    0.2207    2.7318    0.2043 N   0  0  0  0  0  0
    0.7680    1.5667    0.4879 C   0  0  0  0  0  0
    0.1038    0.4149    0.4708 N   0  0  0  0  0  0
   -1.1839    0.4561    0.1466 C   0  0  0  0  0  0
   -1.8383   -0.7412    0.1338 N   0  0  0  0  0  0
   -3.2520   -0.8936   -0.1857 C   0  0  0  0  0  0
   -3.4368   -0.9330   -1.7011 C   0  0  0  0  0  0
   -3.7925   -2.1949    0.4452 C   0  0  0  0  0  0
    2.0945    1.5902    0.8152 N   0  0  0  0  0  0
    2.8880    0.3974    1.0393 C   0  0  0  0  0  0
    4.0550    0.7508    1.9602 C   0  0  0  0  0  0
    3.4054   -0.1417   -0.2916 C   0  0  0  0  0  0
   -1.8384    4.1244   -0.4859 Cl  0  0  0  0  0  0
   -3.7476   -2.1240    1.8769 O   0  0  0  0  0  0
   -1.2892   -1.5537    0.3894 H   0  0  0  0  0  0
   -3.8206   -0.0579    0.2414 H   0  0  0  0  0  0
   -4.4929   -1.0600   -1.9611 H   0  0  0  0  0  0
   -2.8739   -1.7600   -2.1484 H   0  0  0  0  0  0
   -3.0877   -0.0065   -2.1688 H   0  0  0  0  0  0
   -3.1995   -3.0609    0.1306 H   0  0  0  0  0  0
   -4.8356   -2.3565    0.1534 H   0  0  0  0  0  0
    2.5494    2.4938    0.7432 H   0  0  0  0  0  0
    2.2954   -0.3766    1.5424 H   0  0  0  0  0  0
    4.6704   -0.1313    2.1662 H   0  0  0  0  0  0
    3.6896    1.1396    2.9172 H   0  0  0  0  0  0
    4.6983    1.5188    1.5160 H   0  0  0  0  0  0
    4.0285   -1.0288   -0.1368 H   0  0  0  0  0  0
    4.0053    0.6081   -0.8196 H   0  0  0  0  0  0
    2.5778   -0.4246   -0.9509 H   0  0  0  0  0  0
   -4.0905   -2.9878    2.1914 H   0  0  0  0  0  0
  1  2  2  0  0  0
  1  6  1  0  0  0
  2  3  1  0  0  0
  2 15  1  0  0  0
  3  4  2  0  0  0
  4  5  1  0  0  0
  4 11  1  0  0  0
  5  6  2  0  0  0
  6  7  1  0  0  0
  7  8  1  0  0  0
  7 17  1  0  0  0
  8  9  1  0  0  0
  8 10  1  0  0  0
  8 18  1  0  0  0
  9 19  1  0  0  0
  9 20  1  0  0  0
  9 21  1  0  0  0
 10 16  1  0  0  0
 10 22  1  0  0  0
 10 23  1  0  0  0
 11 12  1  0  0  0
 11 24  1  0  0  0
 12 13  1  0  0  0
 12 14  1  0  0  0
 12 25  1  0  0  0
 13 26  1  0  0  0
 13 27  1  0  0  0
 13 28  1  0  0  0
 14 29  1  0  0  0
 14 30  1  0  0  0
 14 31  1  0  0  0
 16 32  1  0  0  0
M  END
>  <Name>
tox-118

>  <substance>
2-Chloro-4-isopropylamino-6-(1- hydroxyisopropylamino)-1,3,5-triazine

>  <CASRN>
142200-36-0

>  <from_NCI>
0

>  <RBA>
0.000000

>  <method>
hERa-FP

>  <chemical_class>
Triazine

>  <set>
0

$$$$
tox-119
  Cerius2 12190218263D 1   1.00000                          
 Structure written by MMmdl.
 47 50  0  0  0  0  0  0  0  0999 V2000
   -4.1882    0.1104    1.6947 C   0  0  0  0  0  0
   -4.0980   -1.1432    2.3195 C   0  0  0  0  0  0
   -2.9550   -1.8830    1.9631 C   0  0  0  0  0  0
   -3.2145    0.5999    0.8057 C   0  0  0  0  0  0
   -2.0671   -0.1414    0.5021 C   0  0  0  0  0  0
   -1.9649   -1.4237    1.0602 C   0  0  0  0  0  0
   -0.8037   -2.3381    0.7512 C   0  0  0  0  0  0
   -0.0810   -1.9654   -0.5399 C   0  0  0  0  0  0
   -1.0292    0.3821   -0.4880 C   0  0  0  0  0  0
    0.2744   -0.4769   -0.5204 C   0  0  0  0  0  0
    0.3010    2.3211   -1.5483 C   0  0  0  0  0  0
   -0.6973    1.9149   -0.4164 C   0  0  0  0  0  0
    1.5545    1.4225   -1.6992 C   0  0  0  0  0  0
    1.0737   -0.0529   -1.7564 C   0  0  0  0  0  0
    2.3259   -0.8191   -2.1649 C   0  0  0  0  0  0
    3.0312    0.1342   -3.1593 C   0  0  0  0  0  0
    2.2494    1.4892   -3.1198 C   0  0  0  0  0  0
    2.5632    1.6855   -0.5402 C   0  0  0  0  0  0
    3.0912    2.4976   -3.2734 O   0  0  0  0  0  0
   -0.3041    2.3630    1.0048 C   0  0  0  0  0  0
   -0.0269    4.1259    1.1221 Cl  0  0  0  0  0  0
   -4.9775   -1.5771    3.1291 O   0  0  0  0  0  0
   -5.0513    0.7524    1.8940 H   0  0  0  0  0  0
   -2.8200   -2.8790    2.3979 H   0  0  0  0  0  0
   -3.3851    1.5776    0.3580 H   0  0  0  0  0  0
   -1.1572   -3.3727    0.6645 H   0  0  0  0  0  0
   -0.1015   -2.2975    1.5932 H   0  0  0  0  0  0
   -0.7154   -2.1921   -1.4065 H   0  0  0  0  0  0
    0.8202   -2.5820   -0.6295 H   0  0  0  0  0  0
   -1.5220    0.2346   -1.4633 H   0  0  0  0  0  0
    0.8567   -0.3006    0.3904 H   0  0  0  0  0  0
    0.6006    3.3704   -1.4558 H   0  0  0  0  0  0
   -0.2637    2.2729   -2.4907 H   0  0  0  0  0  0
   -1.6223    2.4600   -0.6530 H   0  0  0  0  0  0
    0.3818   -0.1576   -2.6096 H   0  0  0  0  0  0
    2.0876   -1.7765   -2.6393 H   0  0  0  0  0  0
    2.9722   -1.0235   -1.3042 H   0  0  0  0  0  0
    3.0048   -0.2839   -4.1737 H   0  0  0  0  0  0
    4.0906    0.2255   -2.8843 H   0  0  0  0  0  0
    1.4399    1.3775   -3.8598 H   0  0  0  0  0  0
    3.5508    1.2567   -0.7416 H   0  0  0  0  0  0
    2.2515    1.2606    0.4119 H   0  0  0  0  0  0
    2.7097    2.7615   -0.3923 H   0  0  0  0  0  0
    0.5844    1.8635    1.3861 H   0  0  0  0  0  0
   -1.1064    2.1536    1.7165 H   0  0  0  0  0  0
    3.4252    2.4714   -4.0546 H   0  0  0  0  0  0
   -4.7531   -2.3495    3.4040 H   0  0  0  0  0  0
  1  2  2  0  0  0
  1  4  1  0  0  0
  1 23  1  0  0  0
  2  3  1  0  0  0
  2 22  1  0  0  0
  3  6  2  0  0  0
  3 24  1  0  0  0
  4  5  2  0  0  0
  4 25  1  0  0  0
  5  6  1  0  0  0
  5  9  1  0  0  0
  6  7  1  0  0  0
  7  8  1  0  0  0
  7 26  1  0  0  0
  7 27  1  0  0  0
  8 10  1  0  0  0
  8 28  1  0  0  0
  8 29  1  0  0  0
  9 10  1  0  0  0
  9 12  1  0  0  0
  9 30  1  0  0  0
 10 14  1  0  0  0
 10 31  1  0  0  0
 11 12  1  0  0  0
 11 13  1  0  0  0
 11 32  1  0  0  0
 11 33  1  0  0  0
 12 20  1  0  0  0
 12 34  1  0  0  0
 13 14  1  0  0  0
 13 17  1  0  0  0
 13 18  1  0  0  0
 14 15  1  0  0  0
 14 35  1  0  0  0
 15 16  1  0  0  0
 15 36  1  0  0  0
 15 37  1  0  0  0
 16 17  1  0  0  0
 16 38  1  0  0  0
 16 39  1  0  0  0
 17 19  1  0  0  0
 17 40  1  0  0  0
 18 41  1  0  0  0
 18 42  1  0  0  0
 18 43  1  0  0  0
 19 46  1  0  0  0
 20 21  1  0  0  0
 20 44  1  0  0  0
 20 45  1  0  0  0
 22 47  1  0  0  0
M  END
>  <Name>
tox-119

>  <substance>
11b-Chloromethylestradiol

>  <CASRN>
71794-60-0

>  <from_NCI>
1

>  <RBA>
100.000000

>  <method>
MCF-7 cytosol

>  <chemical_class>
Steroid, phenolic

>  <set>
1

$$$$
tox-120
  Cerius2 12190218263D 1   1.00000                          
 Structure written by MMmdl.
 16 16  0  0  0  0  0  0  0  0999 V2000
    0.8986   -0.6758   -0.0118 C   0  0  0  0  0  0
    0.9392    0.7443   -0.1352 C   0  0  0  0  0  0
   -0.3264   -1.3746    0.1015 C   0  0  0  0  0  0
    2.1696   -1.5071    0.0031 C   0  0  0  0  0  0
   -0.3250    1.3779   -0.1337 C   0  0  0  0  0  0
    2.0102    1.4278   -0.2409 O   0  0  0  0  0  0
   -1.5349   -0.6914    0.0962 C   0  0  0  0  0  0
   -1.5408    0.6871   -0.0213 C   0  0  0  0  0  0
   -3.0178   -1.5543    0.2350 Cl  0  0  0  0  0  0
   -0.3266   -2.4594    0.1941 H   0  0  0  0  0  0
    1.9540   -2.5757    0.1079 H   0  0  0  0  0  0
    2.8018   -1.2136    0.8474 H   0  0  0  0  0  0
    2.7193   -1.3712   -0.9339 H   0  0  0  0  0  0
   -0.3795    2.4673   -0.2245 H   0  0  0  0  0  0
   -2.4752    1.2430   -0.0277 H   0  0  0  0  0  0
    1.8149    2.2527   -0.3029 H   0  0  0  0  0  0
  1  2  2  0  0  0
  1  3  1  0  0  0
  1  4  1  0  0  0
  2  5  1  0  0  0
  2  6  1  0  0  0
  3  7  2  0  0  0
  3 10  1  0  0  0
  4 11  1  0  0  0
  4 12  1  0  0  0
  4 13  1  0  0  0
  5  8  2  0  0  0
  5 14  1  0  0  0
  6 16  1  0  0  0
  7  8  1  0  0  0
  7  9  1  0  0  0
  8 15  1  0  0  0
M  END
>  <Name>
tox-120

>  <substance>
2-Chloro-4-methylphenol

>  <CASRN>
6640-27-3

>  <from_NCI>
1

>  <RBA>
0.000200

>  <method>
RUC

>  <chemical_class>
Chlorinated phenol

>  <set>
2

$$$$
tox-121
  Cerius2 12190218263D 1   1.00000                          
 Structure written by MMmdl.
 16 16  0  0  0  0  0  0  0  0999 V2000
   -0.9211   -0.7319    0.0117 C   0  0  0  0  0  0
   -1.0275    0.6848    0.1348 C   0  0  0  0  0  0
    0.3350   -1.3733   -0.1009 C   0  0  0  0  0  0
   -2.1522   -1.6213   -0.0030 C   0  0  0  0  0  0
    0.2060    1.3762    0.1338 C   0  0  0  0  0  0
   -2.1290    1.3180    0.2401 O   0  0  0  0  0  0
    1.5106   -0.6349   -0.0953 C   0  0  0  0  0  0
    1.4526    0.7425    0.0219 C   0  0  0  0  0  0
    3.0319   -1.4282   -0.2334 Cl  0  0  0  0  0  0
    0.3854   -2.4569   -0.1931 H   0  0  0  0  0  0
   -1.8876   -2.6783   -0.1124 H   0  0  0  0  0  0
   -2.7996   -1.3546   -0.8446 H   0  0  0  0  0  0
   -2.7051   -1.5141    0.9358 H   0  0  0  0  0  0
    0.2099    2.4670    0.2244 H   0  0  0  0  0  0
    2.3602    1.3411    0.0286 H   0  0  0  0  0  0
   -1.9721    2.1511    0.3020 H   0  0  0  0  0  0
  1  2  2  0  0  0
  1  3  1  0  0  0
  1  4  1  0  0  0
  2  5  1  0  0  0
  2  6  1  0  0  0
  3  7  2  0  0  0
  3 10  1  0  0  0
  4 11  1  0  0  0
  4 12  1  0  0  0
  4 13  1  0  0  0
  5  8  2  0  0  0
  5 14  1  0  0  0
  6 16  1  0  0  0
  7  8  1  0  0  0
  7  9  1  0  0  0
  8 15  1  0  0  0
M  END
>  <Name>
tox-121

>  <substance>
4-Chloro-2-methylphenol

>  <CASRN>
1570-64-5

>  <from_NCI>
1

>  <RBA>
0.000200

>  <method>
RUC

>  <chemical_class>
Organochlorine; Chlorinated phenol

>  <set>
0

$$$$
tox-122
  Cerius2 12190218263D 1   1.00000                          
 Structure written by MMmdl.
 13 13  0  0  0  0  0  0  0  0999 V2000
   -0.2892    1.3577   -0.0042 C   0  0  0  0  0  0
    0.9141    0.5880    0.0018 C   0  0  0  0  0  0
   -1.4662    0.5734   -0.0073 C   0  0  0  0  0  0
   -0.3595    2.6352   -0.0069 O   0  0  0  0  0  0
    0.9240   -0.8191    0.0045 C   0  0  0  0  0  0
    2.4828    1.3563    0.0064 Cl  0  0  0  0  0  0
   -1.4677   -0.8313   -0.0047 C   0  0  0  0  0  0
   -0.2697   -1.5291    0.0012 C   0  0  0  0  0  0
   -2.4417    1.0702   -0.0120 H   0  0  0  0  0  0
    1.8666   -1.3628    0.0091 H   0  0  0  0  0  0
   -2.4140   -1.3702   -0.0073 H   0  0  0  0  0  0
   -0.2642   -2.6168    0.0032 H   0  0  0  0  0  0
   -1.1752    2.8741   -0.0104 H   0  0  0  0  0  0
  1  2  2  0  0  0
  1  3  1  0  0  0
  1  4  1  0  0  0
  2  5  1  0  0  0
  2  6  1  0  0  0
  3  7  2  0  0  0
  3  9  1  0  0  0
  4 13  1  0  0  0
  5  8  2  0  0  0
  5 10  1  0  0  0
  7  8  1  0  0  0
  7 11  1  0  0  0
  8 12  1  0  0  0
M  END
>  <Name>
tox-122

>  <substance>
2-Chlorophenol

>  <CASRN>
95-57-8

>  <from_NCI>
1

>  <RBA>
0.000000

>  <method>
RUC

>  <chemical_class>
Chlorinated phenol

>  <set>
1

$$$$
tox-123
  Cerius2 12190218263D 1   1.00000                          
 Structure written by MMmdl.
 13 13  0  0  0  0  0  0  0  0999 V2000
   -1.6465    0.0446    0.0053 C   0  0  0  0  0  0
   -0.9153   -1.1609   -0.0007 C   0  0  0  0  0  0
   -0.8570    1.2126    0.0072 C   0  0  0  0  0  0
   -2.9172    0.0758    0.0086 O   0  0  0  0  0  0
    0.4888   -1.2068   -0.0044 C   0  0  0  0  0  0
    0.5477    1.1895    0.0035 C   0  0  0  0  0  0
    1.2159   -0.0258   -0.0023 C   0  0  0  0  0  0
    2.9362   -0.0681   -0.0069 Cl  0  0  0  0  0  0
   -1.4484   -2.1161   -0.0025 H   0  0  0  0  0  0
   -1.3424    2.1929    0.0118 H   0  0  0  0  0  0
    0.9922   -2.1706   -0.0089 H   0  0  0  0  0  0
    1.0979    2.1274    0.0053 H   0  0  0  0  0  0
   -3.1808    0.8839    0.0121 H   0  0  0  0  0  0
  1  2  2  0  0  0
  1  3  1  0  0  0
  1  4  1  0  0  0
  2  5  1  0  0  0
  2  9  1  0  0  0
  3  6  2  0  0  0
  3 10  1  0  0  0
  4 13  1  0  0  0
  5  7  2  0  0  0
  5 11  1  0  0  0
  6  7  1  0  0  0
  6 12  1  0  0  0
  7  8  1  0  0  0
M  END
>  <Name>
tox-123

>  <substance>
4-Chlorophenol

>  <CASRN>
106-48-9

>  <from_NCI>
1

>  <RBA>
0.004000

>  <method>
RUC

>  <chemical_class>
Chlorinated phenol

>  <set>
2

$$$$
tox-124
  Cerius2 12190218263D 1   1.00000                          
 Structure written by MMmdl.
 57 59  0  0  0  0  0  0  0  0999 V2000
   -3.5828   -6.4613   -1.2573 N   0  0  0  0  0  0
   -3.8159   -5.0057   -1.3694 C   0  0  0  0  0  0
   -3.1584   -4.0848   -0.3229 C   0  0  0  0  0  0
   -3.9077   -6.9770    0.0750 C   0  0  0  0  0  0
   -2.2075   -6.8166   -1.6187 C   0  0  0  0  0  0
   -3.2639   -2.7292   -0.7885 O   0  0  0  0  0  0
   -2.5488   -1.7966   -0.0876 C   0  0  0  0  0  0
   -2.2849   -0.6121   -0.7765 C   0  0  0  0  0  0
   -1.5644    0.4187   -0.1662 C   0  0  0  0  0  0
   -1.1027    0.2801    1.1486 C   0  0  0  0  0  0
   -1.3942   -0.9003    1.8450 C   0  0  0  0  0  0
   -2.1089   -1.9360    1.2288 C   0  0  0  0  0  0
   -0.3485    1.3909    1.7941 C   0  0  0  0  0  0
    0.9879    1.2918    2.0428 C   0  0  0  0  0  0
    1.8232    2.3445    2.7635 C   0  0  0  0  0  0
    2.7385    3.1202    1.8217 C   0  0  0  0  0  0
    1.7672    0.0870    1.6554 C   0  0  0  0  0  0
    2.2167   -0.8136    2.6308 C   0  0  0  0  0  0
    2.9358   -1.9535    2.2634 C   0  0  0  0  0  0
    3.2130   -2.2021    0.9196 C   0  0  0  0  0  0
    2.7784   -1.3096   -0.0583 C   0  0  0  0  0  0
    2.0601   -0.1688    0.3068 C   0  0  0  0  0  0
   -1.0621    2.6418    2.1597 C   0  0  0  0  0  0
   -1.8600    2.6878    3.3113 C   0  0  0  0  0  0
   -2.5279    3.8660    3.6584 C   0  0  0  0  0  0
   -2.4051    4.9971    2.8518 C   0  0  0  0  0  0
   -1.6222    4.9611    1.6998 C   0  0  0  0  0  0
   -0.9566    3.7834    1.3511 C   0  0  0  0  0  0
   -3.2269    6.4467    3.2839 Cl  0  0  0  0  0  0
   -4.9000   -4.8291   -1.3403 H   0  0  0  0  0  0
   -3.5258   -4.6757   -2.3764 H   0  0  0  0  0  0
   -2.1011   -4.3448   -0.1984 H   0  0  0  0  0  0
   -3.6872   -4.1876    0.6324 H   0  0  0  0  0  0
   -3.8557   -8.0716    0.0784 H   0  0  0  0  0  0
   -4.9325   -6.7092    0.3558 H   0  0  0  0  0  0
   -3.2262   -6.6043    0.8476 H   0  0  0  0  0  0
   -2.0767   -7.9050   -1.6043 H   0  0  0  0  0  0
   -1.4652   -6.3793   -0.9425 H   0  0  0  0  0  0
   -1.9806   -6.4907   -2.6399 H   0  0  0  0  0  0
   -2.6314   -0.4842   -1.7998 H   0  0  0  0  0  0
   -1.3586    1.3288   -0.7280 H   0  0  0  0  0  0
   -1.0673   -1.0265    2.8758 H   0  0  0  0  0  0
   -2.3153   -2.8295    1.8119 H   0  0  0  0  0  0
    2.4329    1.8710    3.5434 H   0  0  0  0  0  0
    1.1943    3.0617    3.3027 H   0  0  0  0  0  0
    3.2645    3.9071    2.3733 H   0  0  0  0  0  0
    2.1732    3.5970    1.0153 H   0  0  0  0  0  0
    3.4964    2.4699    1.3730 H   0  0  0  0  0  0
    2.0017   -0.6402    3.6838 H   0  0  0  0  0  0
    3.2746   -2.6512    3.0274 H   0  0  0  0  0  0
    3.7693   -3.0939    0.6349 H   0  0  0  0  0  0
    2.9949   -1.5021   -1.1077 H   0  0  0  0  0  0
    1.7256    0.5195   -0.4685 H   0  0  0  0  0  0
   -1.9620    1.8101    3.9469 H   0  0  0  0  0  0
   -3.1385    3.8911    4.5577 H   0  0  0  0  0  0
   -1.5223    5.8400    1.0674 H   0  0  0  0  0  0
   -0.3521    3.7602    0.4458 H   0  0  0  0  0  0
  1  2  1  0  0  0
  1  4  1  0  0  0
  1  5  1  0  0  0
  2  3  1  0  0  0
  2 30  1  0  0  0
  2 31  1  0  0  0
  3  6  1  0  0  0
  3 32  1  0  0  0
  3 33  1  0  0  0
  4 34  1  0  0  0
  4 35  1  0  0  0
  4 36  1  0  0  0
  5 37  1  0  0  0
  5 38  1  0  0  0
  5 39  1  0  0  0
  6  7  1  0  0  0
  7  8  2  0  0  0
  7 12  1  0  0  0
  8  9  1  0  0  0
  8 40  1  0  0  0
  9 10  2  0  0  0
  9 41  1  0  0  0
 10 11  1  0  0  0
 10 13  1  0  0  0
 11 12  2  0  0  0
 11 42  1  0  0  0
 12 43  1  0  0  0
 13 14  2  0  0  0
 13 23  1  0  0  0
 14 15  1  0  0  0
 14 17  1  0  0  0
 15 16  1  0  0  0
 15 44  1  0  0  0
 15 45  1  0  0  0
 16 46  1  0  0  0
 16 47  1  0  0  0
 16 48  1  0  0  0
 17 18  2  0  0  0
 17 22  1  0  0  0
 18 19  1  0  0  0
 18 49  1  0  0  0
 19 20  2  0  0  0
 19 50  1  0  0  0
 20 21  1  0  0  0
 20 51  1  0  0  0
 21 22  2  0  0  0
 21 52  1  0  0  0
 22 53  1  0  0  0
 23 24  2  0  0  0
 23 28  1  0  0  0
 24 25  1  0  0  0
 24 54  1  0  0  0
 25 26  2  0  0  0
 25 55  1  0  0  0
 26 27  1  0  0  0
 26 29  1  0  0  0
 27 28  2  0  0  0
 27 56  1  0  0  0
 28 57  1  0  0  0
M  END
>  <Name>
tox-124

>  <substance>
Chlorotamoxifen

>  <CASRN>
77588-46-6

>  <from_NCI>
1

>  <RBA>
0.000000

>  <method>
RUC

>  <chemical_class>
Triphenylethylene

>  <set>
1

$$$$
tox-125
  Cerius2 12190218263D 1   1.00000                          
 Structure written by MMmdl.
 74 77  0  0  0  0  0  0  0  0999 V2000
   -5.9243   -1.8235   -4.0157 C   0  0  0  0  0  0
   -5.3514   -3.2118   -4.3813 C   0  0  0  0  0  0
   -4.7120   -3.8405   -3.1153 C   0  0  0  0  0  0
   -4.8372   -0.9049   -3.4387 C   0  0  0  0  0  0
   -4.0947   -1.4806   -2.1975 C   0  0  0  0  0  0
   -3.6696   -2.9277   -2.4892 C   0  0  0  0  0  0
   -2.4372   -3.3950   -2.2161 C   0  0  0  0  0  0
   -1.3431   -2.5968   -1.5791 C   0  0  0  0  0  0
   -2.8295   -0.5732   -1.9126 C   0  0  0  0  0  0
   -1.8239   -1.2753   -0.9589 C   0  0  0  0  0  0
   -1.9415    1.7156   -1.0848 C   0  0  0  0  0  0
   -3.1719    0.8659   -1.4502 C   0  0  0  0  0  0
   -1.0402    1.0157   -0.0503 C   0  0  0  0  0  0
   -0.6395   -0.3409   -0.6823 C   0  0  0  0  0  0
    0.4771   -0.8551    0.2126 C   0  0  0  0  0  0
    1.2040    0.4161    0.6695 C   0  0  0  0  0  0
    0.3821    1.6302    0.1521 C   0  0  0  0  0  0
   -6.3570   -3.9774   -4.7817 O   0  0  0  0  0  0
   -5.0567   -1.4972   -0.9847 C   0  0  0  0  0  0
   -1.7786    0.8769    1.3022 C   0  0  0  0  0  0
    0.5636    2.8915    1.0477 C   0  0  0  0  0  0
    2.0404    3.3817    1.0544 C   0  0  0  0  0  0
   -0.3215    4.0569    0.5898 C   0  0  0  0  0  0
    2.8461    2.8893    2.2637 C   0  0  0  0  0  0
    4.2681    3.4620    2.2505 C   0  0  0  0  0  0
    5.0875    3.0959    3.5019 C   0  0  0  0  0  0
    6.4281    3.8339    3.4780 C   0  0  0  0  0  0
    5.3302    1.5907    3.6220 C   0  0  0  0  0  0
   -6.7494   -1.9053   -3.2940 H   0  0  0  0  0  0
   -6.3454   -1.3405   -4.9089 H   0  0  0  0  0  0
   -4.5196   -3.0219   -5.0776 H   0  0  0  0  0  0
   -4.2610   -4.8080   -3.3799 H   0  0  0  0  0  0
   -5.4743   -4.0658   -2.3558 H   0  0  0  0  0  0
   -5.3021    0.0571   -3.1915 H   0  0  0  0  0  0
   -4.1127   -0.6998   -4.2387 H   0  0  0  0  0  0
   -2.1811   -4.4254   -2.4609 H   0  0  0  0  0  0
   -0.5771   -2.4092   -2.3419 H   0  0  0  0  0  0
   -0.8716   -3.2078   -0.7999 H   0  0  0  0  0  0
   -2.3004   -0.4531   -2.8722 H   0  0  0  0  0  0
   -2.3220   -1.5150   -0.0125 H   0  0  0  0  0  0
   -2.2982    2.6813   -0.7182 H   0  0  0  0  0  0
   -1.3725    1.9241   -2.0000 H   0  0  0  0  0  0
   -3.8410    0.8442   -0.5852 H   0  0  0  0  0  0
   -3.7171    1.3881   -2.2446 H   0  0  0  0  0  0
   -0.1715   -0.1335   -1.6597 H   0  0  0  0  0  0
    1.1538   -1.5292   -0.3226 H   0  0  0  0  0  0
    0.0821   -1.4014    1.0766 H   0  0  0  0  0  0
    2.2255    0.4447    0.2751 H   0  0  0  0  0  0
    1.2662    0.4064    1.7628 H   0  0  0  0  0  0
    0.7723    1.8850   -0.8455 H   0  0  0  0  0  0
   -4.5455   -1.7960   -0.0638 H   0  0  0  0  0  0
   -5.8888   -2.1954   -1.1236 H   0  0  0  0  0  0
   -5.5107   -0.5157   -0.8146 H   0  0  0  0  0  0
   -1.1538    0.4167    2.0740 H   0  0  0  0  0  0
   -2.6842    0.2689    1.2288 H   0  0  0  0  0  0
   -2.0884    1.8558    1.6816 H   0  0  0  0  0  0
    0.2705    2.6499    2.0771 H   0  0  0  0  0  0
    2.0692    4.4788    1.0720 H   0  0  0  0  0  0
    2.5449    3.0849    0.1265 H   0  0  0  0  0  0
   -0.0871    4.9717    1.1460 H   0  0  0  0  0  0
   -1.3772    3.8560    0.7815 H   0  0  0  0  0  0
   -0.1873    4.2658   -0.4765 H   0  0  0  0  0  0
    2.8956    1.7992    2.2623 H   0  0  0  0  0  0
    2.3396    3.1939    3.1873 H   0  0  0  0  0  0
    4.2064    4.5555    2.1774 H   0  0  0  0  0  0
    4.7912    3.1160    1.3497 H   0  0  0  0  0  0
    4.5380    3.4273    4.3922 H   0  0  0  0  0  0
    7.0098    3.6147    4.3797 H   0  0  0  0  0  0
    6.2754    4.9176    3.4369 H   0  0  0  0  0  0
    7.0273    3.5422    2.6086 H   0  0  0  0  0  0
    5.9754    1.3687    4.4791 H   0  0  0  0  0  0
    5.8144    1.1936    2.7234 H   0  0  0  0  0  0
    4.3937    1.0461    3.7747 H   0  0  0  0  0  0
   -6.0621   -4.7475   -4.9879 H   0  0  0  0  0  0
  1  2  1  0  0  0
  1  4  1  0  0  0
  1 29  1  0  0  0
  1 30  1  0  0  0
  2  3  1  0  0  0
  2 18  1  0  0  0
  2 31  1  0  0  0
  3  6  1  0  0  0
  3 32  1  0  0  0
  3 33  1  0  0  0
  4  5  1  0  0  0
  4 34  1  0  0  0
  4 35  1  0  0  0
  5  6  1  0  0  0
  5  9  1  0  0  0
  5 19  1  0  0  0
  6  7  2  0  0  0
  7  8  1  0  0  0
  7 36  1  0  0  0
  8 10  1  0  0  0
  8 37  1  0  0  0
  8 38  1  0  0  0
  9 10  1  0  0  0
  9 12  1  0  0  0
  9 39  1  0  0  0
 10 14  1  0  0  0
 10 40  1  0  0  0
 11 12  1  0  0  0
 11 13  1  0  0  0
 11 41  1  0  0  0
 11 42  1  0  0  0
 12 43  1  0  0  0
 12 44  1  0  0  0
 13 14  1  0  0  0
 13 17  1  0  0  0
 13 20  1  0  0  0
 14 15  1  0  0  0
 14 45  1  0  0  0
 15 16  1  0  0  0
 15 46  1  0  0  0
 15 47  1  0  0  0
 16 17  1  0  0  0
 16 48  1  0  0  0
 16 49  1  0  0  0
 17 21  1  0  0  0
 17 50  1  0  0  0
 18 74  1  0  0  0
 19 51  1  0  0  0
 19 52  1  0  0  0
 19 53  1  0  0  0
 20 54  1  0  0  0
 20 55  1  0  0  0
 20 56  1  0  0  0
 21 22  1  0  0  0
 21 23  1  0  0  0
 21 57  1  0  0  0
 22 24  1  0  0  0
 22 58  1  0  0  0
 22 59  1  0  0  0
 23 60  1  0  0  0
 23 61  1  0  0  0
 23 62  1  0  0  0
 24 25  1  0  0  0
 24 63  1  0  0  0
 24 64  1  0  0  0
 25 26  1  0  0  0
 25 65  1  0  0  0
 25 66  1  0  0  0
 26 27  1  0  0  0
 26 28  1  0  0  0
 26 67  1  0  0  0
 27 68  1  0  0  0
 27 69  1  0  0  0
 27 70  1  0  0  0
 28 71  1  0  0  0
 28 72  1  0  0  0
 28 73  1  0  0  0
M  END
>  <Name>
tox-125

>  <substance>
Cholesterol

>  <CASRN>
57-88-5

>  <from_NCI>
1

>  <RBA>
0.000000

>  <method>
RUC

>  <chemical_class>
Steroid, nonphenolic

>  <set>
2

$$$$
tox-126
  Cerius2 12190218263D 1   1.00000                          
 Structure written by MMmdl.
 30 33  0  0  0  0  0  0  0  0999 V2000
   -0.4333   -0.5661   -0.0129 C   0  0  0  0  0  0
    0.4338    0.5661   -0.0130 C   0  0  0  0  0  0
   -1.8695   -0.3956   -0.0189 C   0  0  0  0  0  0
    0.1742   -1.8390   -0.0067 C   0  0  0  0  0  0
    1.8700    0.3956   -0.0067 C   0  0  0  0  0  0
   -0.1737    1.8390   -0.0193 C   0  0  0  0  0  0
   -2.4111    0.9121   -0.0251 C   0  0  0  0  0  0
   -2.8105   -1.4604   -0.0192 C   0  0  0  0  0  0
    1.5580   -2.0102   -0.0007 C   0  0  0  0  0  0
    2.4116   -0.9121   -0.0006 C   0  0  0  0  0  0
    2.8111    1.4604   -0.0061 C   0  0  0  0  0  0
   -1.5575    2.0102   -0.0252 C   0  0  0  0  0  0
   -3.8014    1.1215   -0.0311 C   0  0  0  0  0  0
   -4.1927   -1.2434   -0.0251 C   0  0  0  0  0  0
    3.8019   -1.1215    0.0055 C   0  0  0  0  0  0
    4.1933    1.2435    0.0001 C   0  0  0  0  0  0
   -4.6887    0.0500   -0.0311 C   0  0  0  0  0  0
    4.6893   -0.0500    0.0059 C   0  0  0  0  0  0
   -0.4216   -2.7495   -0.0063 H   0  0  0  0  0  0
    0.4222    2.7495   -0.0198 H   0  0  0  0  0  0
   -2.4838   -2.4983   -0.0147 H   0  0  0  0  0  0
    1.9557   -3.0252    0.0039 H   0  0  0  0  0  0
    2.4843    2.4983   -0.0105 H   0  0  0  0  0  0
   -1.9551    3.0252   -0.0300 H   0  0  0  0  0  0
   -4.2079    2.1331   -0.0358 H   0  0  0  0  0  0
   -4.8756   -2.0913   -0.0250 H   0  0  0  0  0  0
    4.2085   -2.1331    0.0102 H   0  0  0  0  0  0
    4.8762    2.0913    0.0004 H   0  0  0  0  0  0
   -5.7623    0.2274   -0.0357 H   0  0  0  0  0  0
    5.7628   -0.2274    0.0108 H   0  0  0  0  0  0
  1  2  2  0  0  0
  1  3  1  0  0  0
  1  4  1  0  0  0
  2  5  1  0  0  0
  2  6  1  0  0  0
  3  7  2  0  0  0
  3  8  1  0  0  0
  4  9  2  0  0  0
  4 19  1  0  0  0
  5 10  2  0  0  0
  5 11  1  0  0  0
  6 12  2  0  0  0
  6 20  1  0  0  0
  7 12  1  0  0  0
  7 13  1  0  0  0
  8 14  2  0  0  0
  8 21  1  0  0  0
  9 10  1  0  0  0
  9 22  1  0  0  0
 10 15  1  0  0  0
 11 16  2  0  0  0
 11 23  1  0  0  0
 12 24  1  0  0  0
 13 17  2  0  0  0
 13 25  1  0  0  0
 14 17  1  0  0  0
 14 26  1  0  0  0
 15 18  2  0  0  0
 15 27  1  0  0  0
 16 18  1  0  0  0
 16 28  1  0  0  0
 17 29  1  0  0  0
 18 30  1  0  0  0
M  END
>  <Name>
tox-126

>  <substance>
Chrysene

>  <CASRN>
218-01-9

>  <from_NCI>
1

>  <RBA>
0.000000

>  <method>
GST-hERadef,RUC

>  <chemical_class>
Polycyclic aromatic hydrocarbon

>  <set>
0

$$$$
tox-127
  Cerius2 12190218263D 1   1.00000                          
 Structure written by MMmdl.
 29 31  0  0  0  0  0  0  0  0999 V2000
   -1.6814   -1.1676    1.2792 C   0  0  0  0  0  0
   -1.5744   -0.0558    0.4294 C   0  0  0  0  0  0
   -0.3799   -1.7661    1.7417 C   0  0  0  0  0  0
   -2.9651   -1.6715    1.6618 C   0  0  0  0  0  0
   -0.3841    0.4908    0.0124 O   0  0  0  0  0  0
   -2.7168    0.5897   -0.0640 C   0  0  0  0  0  0
    0.8615   -1.1386    1.2496 C   0  0  0  0  0  0
   -0.2712   -2.7318    2.4946 O   0  0  0  0  0  0
   -4.0692   -0.9521    1.1112 C   0  0  0  0  0  0
   -3.1901   -2.6727    2.4248 O   0  0  0  0  0  0
    0.7978   -0.0824    0.4322 C   0  0  0  0  0  0
   -4.0129    0.1731    0.2528 C   0  0  0  0  0  0
    2.0119    0.5870   -0.0777 C   0  0  0  0  0  0
   -5.0529    0.7544   -0.1917 O   0  0  0  0  0  0
    3.1234   -0.1452   -0.5241 C   0  0  0  0  0  0
    2.0645    1.9880   -0.1499 C   0  0  0  0  0  0
    4.2591    0.5059   -1.0149 C   0  0  0  0  0  0
    3.2004    2.6385   -0.6401 C   0  0  0  0  0  0
    4.2976    1.8970   -1.0710 C   0  0  0  0  0  0
   -2.5729    1.4510   -0.7215 H   0  0  0  0  0  0
    1.7926   -1.5716    1.5937 H   0  0  0  0  0  0
   -5.0742   -1.3096    1.3827 H   0  0  0  0  0  0
    3.1172   -1.2342   -0.5066 H   0  0  0  0  0  0
    1.2203    2.5908    0.1836 H   0  0  0  0  0  0
    5.1130   -0.0764   -1.3570 H   0  0  0  0  0  0
    3.2263    3.7260   -0.6849 H   0  0  0  0  0  0
    5.1821    2.4034   -1.4536 H   0  0  0  0  0  0
   -4.0288   -2.7829    2.5078 H   0  0  0  0  0  0
   -5.7458    0.3627    0.1066 H   0  0  0  0  0  0
  1  2  2  0  0  0
  1  3  1  0  0  0
  1  4  1  0  0  0
  2  5  1  0  0  0
  2  6  1  0  0  0
  3  7  1  0  0  0
  3  8  2  0  0  0
  4  9  2  0  0  0
  4 10  1  0  0  0
  5 11  1  0  0  0
  6 12  2  0  0  0
  6 20  1  0  0  0
  7 11  2  0  0  0
  7 21  1  0  0  0
  9 12  1  0  0  0
  9 22  1  0  0  0
 10 28  1  0  0  0
 11 13  1  0  0  0
 12 14  1  0  0  0
 13 15  2  0  0  0
 13 16  1  0  0  0
 14 29  1  0  0  0
 15 17  1  0  0  0
 15 23  1  0  0  0
 16 18  2  0  0  0
 16 24  1  0  0  0
 17 19  2  0  0  0
 17 25  1  0  0  0
 18 19  1  0  0  0
 18 26  1  0  0  0
 19 27  1  0  0  0
M  END
>  <Name>
tox-127

>  <substance>
Chrysin

>  <CASRN>
480-40-0

>  <from_NCI>
1

>  <RBA>
0.000000

>  <method>
hERa,RUC

>  <chemical_class>
Flavone

>  <set>
1

$$$$
tox-128
  Cerius2 12190218263D 1   1.00000                          
 Structure written by MMmdl.
 29 30  0  0  0  0  0  0  0  0999 V2000
    1.0573   -0.2717    0.7133 C   0  0  0  0  0  0
   -0.2510   -0.8874    0.7506 O   0  0  0  0  0  0
    0.8753    1.2583    0.7131 C   0  0  0  0  0  0
    1.7732   -0.7278   -0.5726 C   0  0  0  0  0  0
    1.8140   -0.7330    1.9544 C   0  0  0  0  0  0
   -1.0807   -0.5296   -0.3807 C   0  0  0  0  0  0
    0.1206    1.6904   -0.5494 C   0  0  0  0  0  0
    0.9937   -0.2422   -1.8000 C   0  0  0  0  0  0
   -0.3090    0.4337   -1.3305 C   0  0  0  0  0  0
   -2.3580    0.1118    0.1816 C   0  0  0  0  0  0
   -1.4777   -1.8379   -1.0806 C   0  0  0  0  0  0
    1.8429    1.7715    0.7635 H   0  0  0  0  0  0
    0.2965    1.5676    1.5923 H   0  0  0  0  0  0
    1.8298   -1.8231   -0.6024 H   0  0  0  0  0  0
    2.8009   -0.3478   -0.6088 H   0  0  0  0  0  0
    2.8205   -0.3046    1.9960 H   0  0  0  0  0  0
    1.8999   -1.8253    1.9743 H   0  0  0  0  0  0
    1.2769   -0.4479    2.8661 H   0  0  0  0  0  0
    0.7657    2.3240   -1.1707 H   0  0  0  0  0  0
   -0.7420    2.3116   -0.2853 H   0  0  0  0  0  0
    0.7890   -1.0777   -2.4781 H   0  0  0  0  0  0
    1.6052    0.4651   -2.3739 H   0  0  0  0  0  0
   -0.9198    0.7171   -2.1949 H   0  0  0  0  0  0
   -3.0158    0.4629   -0.6200 H   0  0  0  0  0  0
   -2.1357    0.9504    0.8488 H   0  0  0  0  0  0
   -2.9160   -0.6058    0.7949 H   0  0  0  0  0  0
   -2.0638   -1.6460   -1.9851 H   0  0  0  0  0  0
   -2.0736   -2.4711   -0.4124 H   0  0  0  0  0  0
   -0.6043   -2.4412   -1.3472 H   0  0  0  0  0  0
  1  2  1  0  0  0
  1  3  1  0  0  0
  1  4  1  0  0  0
  1  5  1  0  0  0
  2  6  1  0  0  0
  3  7  1  0  0  0
  3 12  1  0  0  0
  3 13  1  0  0  0
  4  8  1  0  0  0
  4 14  1  0  0  0
  4 15  1  0  0  0
  5 16  1  0  0  0
  5 17  1  0  0  0
  5 18  1  0  0  0
  6  9  1  0  0  0
  6 10  1  0  0  0
  6 11  1  0  0  0
  7  9  1  0  0  0
  7 19  1  0  0  0
  7 20  1  0  0  0
  8  9  1  0  0  0
  8 21  1  0  0  0
  8 22  1  0  0  0
  9 23  1  0  0  0
 10 24  1  0  0  0
 10 25  1  0  0  0
 10 26  1  0  0  0
 11 27  1  0  0  0
 11 28  1  0  0  0
 11 29  1  0  0  0
M  END
>  <Name>
tox-128

>  <substance>
Cineole

>  <CASRN>
470-82-6

>  <from_NCI>
1

>  <RBA>
0.000000

>  <method>
RUC

>  <chemical_class>
Terpene

>  <set>
2

$$$$
tox-129
  Cerius2 12190218263D 1   1.00000                          
 Structure written by MMmdl.
 19 19  0  0  0  0  0  0  0  0999 V2000
    0.6711    0.5938   -0.1361 C   0  0  0  0  0  0
   -0.6065    1.3161   -0.2434 C   0  0  0  0  0  0
    1.8559    1.3350   -0.0224 C   0  0  0  0  0  0
    0.7598   -0.8036   -0.1971 C   0  0  0  0  0  0
   -1.7934    0.8403    0.1699 C   0  0  0  0  0  0
    3.0962    0.6949    0.0551 C   0  0  0  0  0  0
    2.0005   -1.4443   -0.1201 C   0  0  0  0  0  0
   -3.0829    1.6202    0.0509 C   0  0  0  0  0  0
    3.1677   -0.6951    0.0087 C   0  0  0  0  0  0
   -4.1094    1.0346    0.5007 O   0  0  0  0  0  0
   -3.0385    2.7656   -0.4746 O   0  0  0  0  0  0
   -0.5452    2.3146   -0.6779 H   0  0  0  0  0  0
    1.8257    2.4236    0.0139 H   0  0  0  0  0  0
   -0.1329   -1.4151   -0.3156 H   0  0  0  0  0  0
   -1.8731   -0.1427    0.6303 H   0  0  0  0  0  0
    4.0065    1.2845    0.1499 H   0  0  0  0  0  0
    2.0534   -2.5308   -0.1660 H   0  0  0  0  0  0
    4.1332   -1.1945    0.0677 H   0  0  0  0  0  0
   -4.7889    1.5348    0.3977 H   0  0  0  0  0  0
  1  2  1  0  0  0
  1  3  2  0  0  0
  1  4  1  0  0  0
  2  5  2  0  0  0
  2 12  1  0  0  0
  3  6  1  0  0  0
  3 13  1  0  0  0
  4  7  2  0  0  0
  4 14  1  0  0  0
  5  8  1  0  0  0
  5 15  1  0  0  0
  6  9  2  0  0  0
  6 16  1  0  0  0
  7  9  1  0  0  0
  7 17  1  0  0  0
  8 10  1  0  0  0
  8 11  2  0  0  0
  9 18  1  0  0  0
 10 19  1  0  0  0
M  END
>  <Name>
tox-129

>  <substance>
Cinnamic acid

>  <CASRN>
621-82-9

>  <from_NCI>
1

>  <RBA>
0.000000

>  <method>
RUC

>  <chemical_class>
Carboxylic acid

>  <set>
2

$$$$
tox-130
  Cerius2 12190218263D 1   1.00000                          
 Structure written by MMmdl.
 57 59  0  0  0  0  0  0  0  0999 V2000
   -5.7002   -3.3713    0.0104 N   0  0  0  0  0  0
   -4.8345   -3.1643   -1.1750 C   0  0  0  0  0  0
   -6.8645   -4.1994   -0.3655 C   0  0  0  0  0  0
   -7.5909   -4.7574    0.8551 C   0  0  0  0  0  0
   -6.1188   -2.0845    0.6037 C   0  0  0  0  0  0
   -5.4625   -1.9152    1.9669 C   0  0  0  0  0  0
   -3.4651   -2.5341   -0.8614 C   0  0  0  0  0  0
   -2.7076   -2.4743   -2.0791 O   0  0  0  0  0  0
   -1.4743   -1.8862   -2.0094 C   0  0  0  0  0  0
   -0.8339   -1.4614   -0.8448 C   0  0  0  0  0  0
    0.4332   -0.8694   -0.9131 C   0  0  0  0  0  0
    1.0750   -0.6982   -2.1453 C   0  0  0  0  0  0
    0.4312   -1.1268   -3.3116 C   0  0  0  0  0  0
   -0.8325   -1.7210   -3.2399 C   0  0  0  0  0  0
    2.4057   -0.0430   -2.2078 C   0  0  0  0  0  0
    3.5253   -0.7829   -2.4099 C   0  0  0  0  0  0
    3.4952   -2.5222   -2.5602 Cl  0  0  0  0  0  0
    4.8859   -0.2229   -2.5242 C   0  0  0  0  0  0
    2.5123    1.4304   -2.0409 C   0  0  0  0  0  0
    2.9012    1.9854   -0.8133 C   0  0  0  0  0  0
    2.9886    3.3707   -0.6618 C   0  0  0  0  0  0
    2.6834    4.2102   -1.7322 C   0  0  0  0  0  0
    2.2877    3.6674   -2.9539 C   0  0  0  0  0  0
    2.1993    2.2823   -3.1084 C   0  0  0  0  0  0
    5.7560   -0.2399   -1.4252 C   0  0  0  0  0  0
    7.0403    0.2981   -1.5337 C   0  0  0  0  0  0
    7.4660    0.8513   -2.7408 C   0  0  0  0  0  0
    6.6107    0.8659   -3.8415 C   0  0  0  0  0  0
    5.3252    0.3304   -3.7349 C   0  0  0  0  0  0
   -5.3507   -2.5677   -1.9401 H   0  0  0  0  0  0
   -4.6295   -4.1340   -1.6486 H   0  0  0  0  0  0
   -6.5259   -5.0652   -0.9482 H   0  0  0  0  0  0
   -7.5613   -3.6395   -1.0020 H   0  0  0  0  0  0
   -8.3908   -5.4337    0.5354 H   0  0  0  0  0  0
   -8.0487   -3.9697    1.4612 H   0  0  0  0  0  0
   -6.9059   -5.3265    1.4929 H   0  0  0  0  0  0
   -7.2054   -2.0228    0.7356 H   0  0  0  0  0  0
   -5.8632   -1.2318   -0.0370 H   0  0  0  0  0  0
   -5.7661   -0.9632    2.4138 H   0  0  0  0  0  0
   -4.3702   -1.9173    1.8945 H   0  0  0  0  0  0
   -5.7614   -2.7175    2.6503 H   0  0  0  0  0  0
   -2.9406   -3.1607   -0.1299 H   0  0  0  0  0  0
   -3.5961   -1.5208   -0.4661 H   0  0  0  0  0  0
   -1.2857   -1.5739    0.1369 H   0  0  0  0  0  0
    0.9137   -0.5425    0.0082 H   0  0  0  0  0  0
    0.9052   -1.0013   -4.2839 H   0  0  0  0  0  0
   -1.3182   -2.0494   -4.1568 H   0  0  0  0  0  0
    3.1371    1.3427    0.0334 H   0  0  0  0  0  0
    3.2937    3.7945    0.2932 H   0  0  0  0  0  0
    2.7520    5.2901   -1.6133 H   0  0  0  0  0  0
    2.0469    4.3234   -3.7885 H   0  0  0  0  0  0
    1.8874    1.8733   -4.0681 H   0  0  0  0  0  0
    5.4363   -0.6678   -0.4762 H   0  0  0  0  0  0
    7.7085    0.2865   -0.6744 H   0  0  0  0  0  0
    8.4664    1.2721   -2.8235 H   0  0  0  0  0  0
    6.9440    1.2960   -4.7842 H   0  0  0  0  0  0
    4.6685    0.3491   -4.6033 H   0  0  0  0  0  0
  1  2  1  0  0  0
  1  3  1  0  0  0
  1  5  1  0  0  0
  2  7  1  0  0  0
  2 30  1  0  0  0
  2 31  1  0  0  0
  3  4  1  0  0  0
  3 32  1  0  0  0
  3 33  1  0  0  0
  4 34  1  0  0  0
  4 35  1  0  0  0
  4 36  1  0  0  0
  5  6  1  0  0  0
  5 37  1  0  0  0
  5 38  1  0  0  0
  6 39  1  0  0  0
  6 40  1  0  0  0
  6 41  1  0  0  0
  7  8  1  0  0  0
  7 42  1  0  0  0
  7 43  1  0  0  0
  8  9  1  0  0  0
  9 10  2  0  0  0
  9 14  1  0  0  0
 10 11  1  0  0  0
 10 44  1  0  0  0
 11 12  2  0  0  0
 11 45  1  0  0  0
 12 13  1  0  0  0
 12 15  1  0  0  0
 13 14  2  0  0  0
 13 46  1  0  0  0
 14 47  1  0  0  0
 15 16  2  0  0  0
 15 19  1  0  0  0
 16 17  1  0  0  0
 16 18  1  0  0  0
 18 25  2  0  0  0
 18 29  1  0  0  0
 19 20  2  0  0  0
 19 24  1  0  0  0
 20 21  1  0  0  0
 20 48  1  0  0  0
 21 22  2  0  0  0
 21 49  1  0  0  0
 22 23  1  0  0  0
 22 50  1  0  0  0
 23 24  2  0  0  0
 23 51  1  0  0  0
 24 52  1  0  0  0
 25 26  1  0  0  0
 25 53  1  0  0  0
 26 27  2  0  0  0
 26 54  1  0  0  0
 27 28  1  0  0  0
 27 55  1  0  0  0
 28 29  2  0  0  0
 28 56  1  0  0  0
 29 57  1  0  0  0
M  END
>  <Name>
tox-130

>  <substance>
cis -Clomiphene

>  <CASRN>
15690-55-8

>  <from_NCI>
1

>  <RBA>
0.100000

>  <method>
RBC

>  <chemical_class>
Stilbene

>  <set>
1

$$$$
tox-131
  Cerius2 12190218263D 1   1.00000                          
 Structure written by MMmdl.
 57 59  0  0  0  0  0  0  0  0999 V2000
    0.0455   -0.9312    3.2419 C   0  0  0  0  0  0
   -0.2157    0.4924    2.9125 C   0  0  0  0  0  0
   -1.0087   -1.7466    3.8986 C   0  0  0  0  0  0
    1.2443   -1.4889    2.9373 C   0  0  0  0  0  0
   -0.9667    0.8241    1.7771 C   0  0  0  0  0  0
    0.2665    1.5157    3.7411 C   0  0  0  0  0  0
   -1.2484   -1.6106    5.2725 C   0  0  0  0  0  0
   -1.7874   -2.6423    3.1529 C   0  0  0  0  0  0
    1.6197   -2.8827    3.2438 C   0  0  0  0  0  0
    2.5173   -0.6084    2.1268 Cl  0  0  0  0  0  0
   -1.2149    2.1625    1.4640 C   0  0  0  0  0  0
    0.0196    2.8539    3.4257 C   0  0  0  0  0  0
   -2.2435   -2.3691    5.8926 C   0  0  0  0  0  0
   -2.7818   -3.3993    3.7757 C   0  0  0  0  0  0
    2.0411   -3.2374    4.5329 C   0  0  0  0  0  0
    1.5641   -3.8674    2.2474 C   0  0  0  0  0  0
   -0.6983    3.1717    2.2739 C   0  0  0  0  0  0
   -3.0086   -3.2631    5.1446 C   0  0  0  0  0  0
    2.3962   -4.5569    4.8208 C   0  0  0  0  0  0
    1.9198   -5.1861    2.5383 C   0  0  0  0  0  0
   -0.9897    4.4660    1.9403 O   0  0  0  0  0  0
    2.3351   -5.5298    3.8241 C   0  0  0  0  0  0
    0.1866    5.2363    1.6257 C   0  0  0  0  0  0
    0.4841    5.1564    0.1178 C   0  0  0  0  0  0
    1.6669    5.9681   -0.2613 N   0  0  0  0  0  0
    1.3577    6.7478   -1.4815 C   0  0  0  0  0  0
    2.8627    5.1197   -0.4694 C   0  0  0  0  0  0
    3.2992    4.3324    0.7628 C   0  0  0  0  0  0
    2.4111    7.7979   -1.8204 C   0  0  0  0  0  0
   -1.3631    0.0442    1.1291 H   0  0  0  0  0  0
    0.8341    1.2771    4.6391 H   0  0  0  0  0  0
   -0.6601   -0.9162    5.8700 H   0  0  0  0  0  0
   -1.6251   -2.7566    2.0825 H   0  0  0  0  0  0
   -1.8028    2.4106    0.5831 H   0  0  0  0  0  0
    0.3841    3.6347    4.0890 H   0  0  0  0  0  0
   -2.4220   -2.2615    6.9609 H   0  0  0  0  0  0
   -3.3805   -4.0953    3.1912 H   0  0  0  0  0  0
    2.0946   -2.4882    5.3211 H   0  0  0  0  0  0
    1.2399   -3.6139    1.2393 H   0  0  0  0  0  0
   -3.7843   -3.8536    5.6290 H   0  0  0  0  0  0
    2.7207   -4.8255    5.8246 H   0  0  0  0  0  0
    1.8719   -5.9460    1.7604 H   0  0  0  0  0  0
    2.6122   -6.5582    4.0498 H   0  0  0  0  0  0
    1.0490    4.9469    2.2346 H   0  0  0  0  0  0
   -0.0443    6.2748    1.8914 H   0  0  0  0  0  0
   -0.4222    5.5084   -0.3946 H   0  0  0  0  0  0
    0.5845    4.1136   -0.2097 H   0  0  0  0  0  0
    0.4207    7.2970   -1.3212 H   0  0  0  0  0  0
    1.2006    6.0857   -2.3423 H   0  0  0  0  0  0
    3.7150    5.7530   -0.7374 H   0  0  0  0  0  0
    2.7043    4.4247   -1.3041 H   0  0  0  0  0  0
    4.2553    3.8358    0.5658 H   0  0  0  0  0  0
    2.5786    3.5532    1.0281 H   0  0  0  0  0  0
    3.4396    4.9934    1.6241 H   0  0  0  0  0  0
    2.0424    8.4476   -2.6214 H   0  0  0  0  0  0
    3.3433    7.3472   -2.1728 H   0  0  0  0  0  0
    2.6330    8.4295   -0.9538 H   0  0  0  0  0  0
  1  2  1  0  0  0
  1  3  1  0  0  0
  1  4  2  0  0  0
  2  5  2  0  0  0
  2  6  1  0  0  0
  3  7  2  0  0  0
  3  8  1  0  0  0
  4  9  1  0  0  0
  4 10  1  0  0  0
  5 11  1  0  0  0
  5 30  1  0  0  0
  6 12  2  0  0  0
  6 31  1  0  0  0
  7 13  1  0  0  0
  7 32  1  0  0  0
  8 14  2  0  0  0
  8 33  1  0  0  0
  9 15  2  0  0  0
  9 16  1  0  0  0
 11 17  2  0  0  0
 11 34  1  0  0  0
 12 17  1  0  0  0
 12 35  1  0  0  0
 13 18  2  0  0  0
 13 36  1  0  0  0
 14 18  1  0  0  0
 14 37  1  0  0  0
 15 19  1  0  0  0
 15 38  1  0  0  0
 16 20  2  0  0  0
 16 39  1  0  0  0
 17 21  1  0  0  0
 18 40  1  0  0  0
 19 22  2  0  0  0
 19 41  1  0  0  0
 20 22  1  0  0  0
 20 42  1  0  0  0
 21 23  1  0  0  0
 22 43  1  0  0  0
 23 24  1  0  0  0
 23 44  1  0  0  0
 23 45  1  0  0  0
 24 25  1  0  0  0
 24 46  1  0  0  0
 24 47  1  0  0  0
 25 26  1  0  0  0
 25 27  1  0  0  0
 26 29  1  0  0  0
 26 48  1  0  0  0
 26 49  1  0  0  0
 27 28  1  0  0  0
 27 50  1  0  0  0
 27 51  1  0  0  0
 28 52  1  0  0  0
 28 53  1  0  0  0
 28 54  1  0  0  0
 29 55  1  0  0  0
 29 56  1  0  0  0
 29 57  1  0  0  0
M  END
>  <Name>
tox-131

>  <substance>
trans -Clomiphene

>  <CASRN>
911-45-5

>  <from_NCI>
1

>  <RBA>
13.000000

>  <method>
hERa,RBC

>  <chemical_class>
Stilbene

>  <set>
0

$$$$
tox-132
  Cerius2 12190218263D 1   1.00000                          
 Structure written by MMmdl.
 57 59  0  0  0  0  0  0  0  0999 V2000
   -2.8814    0.4349    0.7080 C   0  0  0  0  0  0
   -1.5680    1.0932    0.4932 C   0  0  0  0  0  0
   -3.2422   -0.7716   -0.0823 C   0  0  0  0  0  0
   -3.7489    0.9294    1.6271 C   0  0  0  0  0  0
   -0.4033    0.5323    1.0311 C   0  0  0  0  0  0
   -1.4716    2.2653   -0.2651 C   0  0  0  0  0  0
   -3.6090   -0.6441   -1.4285 C   0  0  0  0  0  0
   -3.1971   -2.0472    0.4968 C   0  0  0  0  0  0
   -5.0901    0.3753    1.8974 C   0  0  0  0  0  0
   -3.3761    2.3108    2.6308 Cl  0  0  0  0  0  0
    0.8412    1.1385    0.8217 C   0  0  0  0  0  0
   -0.2284    2.8684   -0.4704 C   0  0  0  0  0  0
   -3.9386   -1.7742   -2.1792 C   0  0  0  0  0  0
   -3.5290   -3.1753   -0.2556 C   0  0  0  0  0  0
   -5.3120   -0.4183    3.0315 C   0  0  0  0  0  0
   -6.1590    0.6427    1.0307 C   0  0  0  0  0  0
    0.9333    2.3101    0.0696 C   0  0  0  0  0  0
   -3.9011   -3.0383   -1.5922 C   0  0  0  0  0  0
   -6.5814   -0.9378    3.2921 C   0  0  0  0  0  0
   -7.4275    0.1214    1.2934 C   0  0  0  0  0  0
    2.0804    3.0005   -0.2073 O   0  0  0  0  0  0
   -7.6379   -0.6678    2.4235 C   0  0  0  0  0  0
    3.3087    2.4454    0.2839 C   0  0  0  0  0  0
    4.4569    3.3759   -0.1466 C   0  0  0  0  0  0
    5.7934    3.0046    0.3775 N   0  0  0  0  0  0
    6.7557    4.0838    0.0731 C   0  0  0  0  0  0
    6.2475    1.7086   -0.1685 C   0  0  0  0  0  0
    8.0222    3.9725    0.9166 C   0  0  0  0  0  0
    6.1835    0.6420    0.9163 C   0  0  0  0  0  0
   -0.4540   -0.3824    1.6202 H   0  0  0  0  0  0
   -2.3610    2.7172   -0.7006 H   0  0  0  0  0  0
   -3.6453    0.3363   -1.9004 H   0  0  0  0  0  0
   -2.9043   -2.1712    1.5380 H   0  0  0  0  0  0
    1.7145    0.6649    1.2616 H   0  0  0  0  0  0
   -0.1704    3.7811   -1.0608 H   0  0  0  0  0  0
   -4.2263   -1.6677   -3.2236 H   0  0  0  0  0  0
   -3.4972   -4.1620    0.2028 H   0  0  0  0  0  0
   -4.4963   -0.6393    3.7183 H   0  0  0  0  0  0
   -6.0105    1.2594    0.1454 H   0  0  0  0  0  0
   -4.1600   -3.9185   -2.1778 H   0  0  0  0  0  0
   -6.7457   -1.5535    4.1741 H   0  0  0  0  0  0
   -8.2527    0.3322    0.6158 H   0  0  0  0  0  0
   -8.6272   -1.0732    2.6274 H   0  0  0  0  0  0
    3.4510    1.4465   -0.1431 H   0  0  0  0  0  0
    3.2797    2.3913    1.3788 H   0  0  0  0  0  0
    4.1957    4.3799    0.2149 H   0  0  0  0  0  0
    4.4733    3.4543   -1.2423 H   0  0  0  0  0  0
    6.3080    5.0566    0.3126 H   0  0  0  0  0  0
    7.0067    4.1034   -0.9951 H   0  0  0  0  0  0
    7.2814    1.7548   -0.5304 H   0  0  0  0  0  0
    5.6549    1.3964   -1.0374 H   0  0  0  0  0  0
    8.6726    4.8326    0.7262 H   0  0  0  0  0  0
    8.5959    3.0693    0.6895 H   0  0  0  0  0  0
    7.7818    3.9654    1.9851 H   0  0  0  0  0  0
    6.5344   -0.3168    0.5206 H   0  0  0  0  0  0
    5.1646    0.4960    1.2868 H   0  0  0  0  0  0
    6.8212    0.9064    1.7668 H   0  0  0  0  0  0
  1  2  1  0  0  0
  1  3  1  0  0  0
  1  4  2  0  0  0
  2  5  2  0  0  0
  2  6  1  0  0  0
  3  7  2  0  0  0
  3  8  1  0  0  0
  4  9  1  0  0  0
  4 10  1  0  0  0
  5 11  1  0  0  0
  5 30  1  0  0  0
  6 12  2  0  0  0
  6 31  1  0  0  0
  7 13  1  0  0  0
  7 32  1  0  0  0
  8 14  2  0  0  0
  8 33  1  0  0  0
  9 15  2  0  0  0
  9 16  1  0  0  0
 11 17  2  0  0  0
 11 34  1  0  0  0
 12 17  1  0  0  0
 12 35  1  0  0  0
 13 18  2  0  0  0
 13 36  1  0  0  0
 14 18  1  0  0  0
 14 37  1  0  0  0
 15 19  1  0  0  0
 15 38  1  0  0  0
 16 20  2  0  0  0
 16 39  1  0  0  0
 17 21  1  0  0  0
 18 40  1  0  0  0
 19 22  2  0  0  0
 19 41  1  0  0  0
 20 22  1  0  0  0
 20 42  1  0  0  0
 21 23  1  0  0  0
 22 43  1  0  0  0
 23 24  1  0  0  0
 23 44  1  0  0  0
 23 45  1  0  0  0
 24 25  1  0  0  0
 24 46  1  0  0  0
 24 47  1  0  0  0
 25 26  1  0  0  0
 25 27  1  0  0  0
 26 28  1  0  0  0
 26 48  1  0  0  0
 26 49  1  0  0  0
 27 29  1  0  0  0
 27 50  1  0  0  0
 27 51  1  0  0  0
 28 52  1  0  0  0
 28 53  1  0  0  0
 28 54  1  0  0  0
 29 55  1  0  0  0
 29 56  1  0  0  0
 29 57  1  0  0  0
M  END
>  <Name>
tox-132

>  <substance>
Clomiphene citrate

>  <CASRN>
50-41-9

>  <from_NCI>
1

>  <RBA>
0.700000

>  <method>
RUC

>  <chemical_class>
Triphenylethylene

>  <set>
0

$$$$
tox-133
  Cerius2 12190218263D 1   1.00000                          
 Structure written by MMmdl.
 54 56  0  0  0  0  0  0  0  0999 V2000
   -0.3776    0.5489   -0.3602 C   0  0  0  0  0  0
    0.9161   -0.1986   -0.3338 C   0  0  0  0  0  0
   -1.5980   -0.0988   -0.0626 C   0  0  0  0  0  0
   -0.4173    1.9224   -0.6585 C   0  0  0  0  0  0
    1.9976    0.1233    0.6038 C   0  0  0  0  0  0
    0.9875   -1.2570   -1.1688 C   0  0  0  0  0  0
   -2.8238    0.5762   -0.1785 C   0  0  0  0  0  0
   -1.6555    2.6003   -0.7300 C   0  0  0  0  0  0
    0.8513    2.7170   -0.8472 C   0  0  0  0  0  0
    2.5869    1.5293    0.6443 C   0  0  0  0  0  0
    2.5610   -0.8185    1.3876 C   0  0  0  0  0  0
    2.0147   -2.2781   -1.2070 C   0  0  0  0  0  0
   -2.8616    1.9373   -0.4982 C   0  0  0  0  0  0
    1.6608    2.7387    0.4486 C   0  0  0  0  0  0
    2.3317   -2.2755    1.2414 C   0  0  0  0  0  0
    2.5951   -2.8424   -0.1284 C   0  0  0  0  0  0
    2.1267   -2.9868    2.2231 O   0  0  0  0  0  0
   -4.1031    2.5149   -0.5450 O   0  0  0  0  0  0
   -4.1673    3.8976   -0.8880 C   0  0  0  0  0  0
   -3.9978   -0.0910    0.0911 O   0  0  0  0  0  0
   -4.4914   -0.7041   -1.1052 C   0  0  0  0  0  0
    3.6648    1.5447   -0.3513 N   0  0  0  0  0  0
    4.8885    2.1394   -0.2620 C   0  0  0  0  0  0
    5.2578    2.8287    1.0238 C   0  0  0  0  0  0
    5.6706    2.0925   -1.2152 O   0  0  0  0  0  0
   -1.6062   -1.4309    0.2926 O   0  0  0  0  0  0
   -1.6104   -1.5576    1.7188 C   0  0  0  0  0  0
    3.4462   -3.9338   -0.1389 O   0  0  0  0  0  0
    3.7486   -4.5285   -1.3988 C   0  0  0  0  0  0
    0.1797   -1.4442   -1.8795 H   0  0  0  0  0  0
   -1.6436    3.6635   -0.9603 H   0  0  0  0  0  0
    0.5993    3.7518   -1.1117 H   0  0  0  0  0  0
    1.4218    2.3240   -1.6964 H   0  0  0  0  0  0
    3.0502    1.6726    1.6284 H   0  0  0  0  0  0
    3.3277   -0.5716    2.1156 H   0  0  0  0  0  0
    2.1909   -2.6718   -2.2047 H   0  0  0  0  0  0
    0.9948    2.8328    1.3167 H   0  0  0  0  0  0
    2.2781    3.6464    0.4380 H   0  0  0  0  0  0
   -5.2219    4.1893   -0.8957 H   0  0  0  0  0  0
   -3.7650    4.0738   -1.8909 H   0  0  0  0  0  0
   -3.6568    4.5120   -0.1393 H   0  0  0  0  0  0
   -5.4303   -1.2081   -0.8577 H   0  0  0  0  0  0
   -3.7915   -1.4568   -1.4836 H   0  0  0  0  0  0
   -4.7008    0.0440   -1.8776 H   0  0  0  0  0  0
    3.4749    1.0916   -1.2392 H   0  0  0  0  0  0
    6.2326    3.3119    0.9100 H   0  0  0  0  0  0
    5.3248    2.0959    1.8322 H   0  0  0  0  0  0
    4.5216    3.5960    1.2738 H   0  0  0  0  0  0
   -1.4944   -2.6187    1.9584 H   0  0  0  0  0  0
   -2.5614   -1.2161    2.1404 H   0  0  0  0  0  0
   -0.7762   -1.0139    2.1753 H   0  0  0  0  0  0
    4.4277   -5.3671   -1.2185 H   0  0  0  0  0  0
    4.2595   -3.8164   -2.0547 H   0  0  0  0  0  0
    2.8439   -4.9235   -1.8720 H   0  0  0  0  0  0
  1  2  1  0  0  0
  1  3  2  0  0  0
  1  4  1  0  0  0
  2  5  1  0  0  0
  2  6  2  0  0  0
  3  7  1  0  0  0
  3 26  1  0  0  0
  4  8  2  0  0  0
  4  9  1  0  0  0
  5 10  1  0  0  0
  5 11  2  0  0  0
  6 12  1  0  0  0
  6 30  1  0  0  0
  7 13  2  0  0  0
  7 20  1  0  0  0
  8 13  1  0  0  0
  8 31  1  0  0  0
  9 14  1  0  0  0
  9 32  1  0  0  0
  9 33  1  0  0  0
 10 14  1  0  0  0
 10 22  1  0  0  0
 10 34  1  0  0  0
 11 15  1  0  0  0
 11 35  1  0  0  0
 12 16  2  0  0  0
 12 36  1  0  0  0
 13 18  1  0  0  0
 14 37  1  0  0  0
 14 38  1  0  0  0
 15 16  1  0  0  0
 15 17  2  0  0  0
 16 28  1  0  0  0
 18 19  1  0  0  0
 19 39  1  0  0  0
 19 40  1  0  0  0
 19 41  1  0  0  0
 20 21  1  0  0  0
 21 42  1  0  0  0
 21 43  1  0  0  0
 21 44  1  0  0  0
 22 23  1  0  0  0
 22 45  1  0  0  0
 23 24  1  0  0  0
 23 25  2  0  0  0
 24 46  1  0  0  0
 24 47  1  0  0  0
 24 48  1  0  0  0
 26 27  1  0  0  0
 27 49  1  0  0  0
 27 50  1  0  0  0
 27 51  1  0  0  0
 28 29  1  0  0  0
 29 52  1  0  0  0
 29 53  1  0  0  0
 29 54  1  0  0  0
M  END
>  <Name>
tox-133

>  <substance>
Colchicine

>  <CASRN>
64-86-8

>  <from_NCI>
1

>  <RBA>
0.000000

>  <method>
RBC

>  <chemical_class>
Amide

>  <set>
1

$$$$
tox-134
  Cerius2 12190218263D 1   1.00000                          
 Structure written by MMmdl.
 55 58  0  0  0  0  0  0  0  0999 V2000
   -5.4625   -4.8648   16.7539 C   0  0  0  0  0  0
   -6.6381   -3.9316   16.8589 C   0  0  0  0  0  0
   -7.5116   -4.0652   15.6232 C   0  0  0  0  0  0
   -4.8260   -5.0305   15.4292 C   0  0  0  0  0  0
   -5.3806   -4.5172   14.3175 C   0  0  0  0  0  0
   -4.6390   -4.5918   13.0056 C   0  0  0  0  0  0
   -5.4954   -5.2276   11.9218 C   0  0  0  0  0  0
   -6.8402   -4.5024   11.7577 C   0  0  0  0  0  0
   -7.7205   -5.2418   10.7425 C   0  0  0  0  0  0
   -7.1942   -5.4917    9.3327 C   0  0  0  0  0  0
   -8.4606   -5.8456    8.5300 C   0  0  0  0  0  0
   -9.6594   -5.5697    9.4675 C   0  0  0  0  0  0
   -9.0870   -4.5674   10.5002 C   0  0  0  0  0  0
   -8.9678   -3.1468    9.8871 C   0  0  0  0  0  0
   -9.8468   -4.5364   11.8379 C   0  0  0  0  0  0
   -9.0430   -3.8606   12.9667 C   0  0  0  0  0  0
   -7.6063   -4.4440   13.1200 C   0  0  0  0  0  0
   -6.7482   -3.8185   14.2872 C   0  0  0  0  0  0
   -6.4892   -2.3039   14.1317 C   0  0  0  0  0  0
   -4.9777   -5.4274   17.7320 O   0  0  0  0  0  0
  -10.9329   -5.1530    8.7474 C   0  0  0  0  0  0
   -6.2698   -2.9097   16.9914 H   0  0  0  0  0  0
   -7.2219   -4.2033   17.7450 H   0  0  0  0  0  0
   -8.3601   -3.3764   15.7168 H   0  0  0  0  0  0
   -7.9361   -5.0794   15.6215 H   0  0  0  0  0  0
   -3.8699   -5.5413   15.4299 H   0  0  0  0  0  0
   -3.7102   -5.1670   13.1058 H   0  0  0  0  0  0
   -4.3421   -3.5812   12.6998 H   0  0  0  0  0  0
   -5.6652   -6.2848   12.1657 H   0  0  0  0  0  0
   -4.9392   -5.2066   10.9769 H   0  0  0  0  0  0
   -6.6312   -3.4872   11.4055 H   0  0  0  0  0  0
   -7.9047   -6.2418   11.1720 H   0  0  0  0  0  0
   -6.4658   -6.3084    9.3034 H   0  0  0  0  0  0
   -6.7120   -4.5996    8.9176 H   0  0  0  0  0  0
   -8.4476   -6.9009    8.2341 H   0  0  0  0  0  0
   -8.5006   -5.2520    7.6099 H   0  0  0  0  0  0
   -9.9142   -6.5094    9.9797 H   0  0  0  0  0  0
   -9.9277   -2.6210    9.9196 H   0  0  0  0  0  0
   -8.6547   -3.1680    8.8383 H   0  0  0  0  0  0
   -8.2460   -2.5155   10.4096 H   0  0  0  0  0  0
  -10.0785   -5.5627   12.1516 H   0  0  0  0  0  0
  -10.8075   -4.0239   11.7080 H   0  0  0  0  0  0
   -9.5977   -4.0143   13.8988 H   0  0  0  0  0  0
   -8.9992   -2.4583   12.7454 O   0  0  0  0  0  0
   -7.7639   -5.4991   13.4020 H   0  0  0  0  0  0
   -6.1872   -2.0379   13.1141 H   0  0  0  0  0  0
   -5.6905   -1.9621   14.8014 H   0  0  0  0  0  0
   -7.3732   -1.7096   14.3830 H   0  0  0  0  0  0
  -11.5124   -3.7912    9.1031 C   0  0  0  0  0  0
  -11.4494   -5.8268    7.8527 O   0  0  0  0  0  0
  -12.6950   -3.5265    8.3631 O   0  0  0  0  0  0
   -9.9122   -2.1473   12.6143 H   0  0  0  0  0  0
  -13.0019   -2.6408    8.6474 H   0  0  0  0  0  0
  -11.7593   -3.7680   10.1670 H   0  0  0  0  0  0
  -10.7837   -3.0109    8.8689 H   0  0  0  0  0  0
  1  2  1  0  0  0
  1  4  1  0  0  0
  1 20  2  0  0  0
  2  3  1  0  0  0
  2 22  1  0  0  0
  2 23  1  0  0  0
  3 18  1  0  0  0
  3 24  1  0  0  0
  3 25  1  0  0  0
  4  5  2  0  0  0
  4 26  1  0  0  0
  5  6  1  0  0  0
  5 18  1  0  0  0
  6  7  1  0  0  0
  6 27  1  0  0  0
  6 28  1  0  0  0
  7  8  1  0  0  0
  7 29  1  0  0  0
  7 30  1  0  0  0
  8  9  1  0  0  0
  8 17  1  0  0  0
  8 31  1  0  0  0
  9 10  1  0  0  0
  9 13  1  0  0  0
  9 32  1  0  0  0
 10 11  1  0  0  0
 10 33  1  0  0  0
 10 34  1  0  0  0
 11 12  1  0  0  0
 11 35  1  0  0  0
 11 36  1  0  0  0
 12 13  1  0  0  0
 12 21  1  0  0  0
 12 37  1  0  0  0
 13 14  1  0  0  0
 13 15  1  0  0  0
 14 38  1  0  0  0
 14 39  1  0  0  0
 14 40  1  0  0  0
 15 16  1  0  0  0
 15 41  1  0  0  0
 15 42  1  0  0  0
 16 17  1  0  0  0
 16 43  1  0  0  0
 16 44  1  0  0  0
 17 18  1  0  0  0
 17 45  1  0  0  0
 18 19  1  0  0  0
 19 46  1  0  0  0
 19 47  1  0  0  0
 19 48  1  0  0  0
 21 49  1  0  0  0
 44 52  1  0  0  0
 49 54  1  0  0  0
 49 55  1  0  0  0
 50 21  2  0  0  0
 51 49  1  0  0  0
 51 53  1  0  0  0
M  END
>  <Name>
tox-134

>  <substance>
Corticosterone

>  <CASRN>
50-22-6

>  <from_NCI>
1

>  <RBA>
0.000000

>  <method>
hERa,RUC

>  <chemical_class>
Steroid, nonphenolic

>  <set>
0

$$$$
tox-135
  Cerius2 12190218263D 1   1.00000                          
 Structure written by MMmdl.
 56 59  0  0  0  0  0  0  0  0999 V2000
    1.4596    0.0132   -0.3691 C   0  0  0  0  0  0
    0.1669   -0.7879   -0.1169 C   0  0  0  0  0  0
    1.5743    1.3372    0.4286 C   0  0  0  0  0  0
    2.7987   -0.6748   -0.1132 C   0  0  0  0  0  0
   -1.0723    0.0939   -0.5040 C   0  0  0  0  0  0
    0.2068   -2.0796   -0.9593 C   0  0  0  0  0  0
    3.0352    1.8359   -0.0052 C   0  0  0  0  0  0
    0.3518    2.2293    0.0449 C   0  0  0  0  0  0
    1.5783    1.0668    1.9723 C   0  0  0  0  0  0
    3.8247    0.4805   -0.0176 C   0  0  0  0  0  0
   -2.4536   -0.7113   -0.5091 C   0  0  0  0  0  0
   -1.0715    1.5611    0.1174 C   0  0  0  0  0  0
   -1.0873   -2.8705   -0.8899 C   0  0  0  0  0  0
    3.6446    2.9314    0.9579 C   0  0  0  0  0  0
    3.0854    2.3623   -1.2341 O   0  0  0  0  0  0
   -2.2742   -2.0282   -1.2852 C   0  0  0  0  0  0
   -3.5289    0.1697   -1.2142 C   0  0  0  0  0  0
   -2.9601   -1.1140    0.8963 C   0  0  0  0  0  0
   -1.4734    1.5930    1.3764 O   0  0  0  0  0  0
    5.1920    2.9732    1.1851 C   0  0  0  0  0  0
    2.9348    3.8232    1.4540 O   0  0  0  0  0  0
   -3.1246   -2.4696   -2.2299 C   0  0  0  0  0  0
   -4.7697   -0.5984   -1.6451 C   0  0  0  0  0  0
    5.4645    2.7293    2.4632 O   0  0  0  0  0  0
   -4.3854   -1.7537   -2.5322 C   0  0  0  0  0  0
   -5.1156   -2.1609   -3.4385 O   0  0  0  0  0  0
    1.4481    0.2623   -1.4426 H   0  0  0  0  0  0
    0.0941   -1.0779    0.9362 H   0  0  0  0  0  0
    3.0642   -1.3627   -0.9227 H   0  0  0  0  0  0
    2.7840   -1.2511    0.8187 H   0  0  0  0  0  0
   -0.8962    0.2985   -1.5765 H   0  0  0  0  0  0
    1.0247   -2.7233   -0.6143 H   0  0  0  0  0  0
    0.4214   -1.8345   -2.0082 H   0  0  0  0  0  0
    0.4741    2.5383   -1.0028 H   0  0  0  0  0  0
    0.3774    3.1653    0.6212 H   0  0  0  0  0  0
    1.4797    2.0045    2.5297 H   0  0  0  0  0  0
    2.5002    0.5880    2.3163 H   0  0  0  0  0  0
    0.7587    0.4215    2.2943 H   0  0  0  0  0  0
    4.5476    0.4067   -0.8415 H   0  0  0  0  0  0
    4.3996    0.3414    0.9056 H   0  0  0  0  0  0
   -1.6620    2.1518   -0.6016 H   0  0  0  0  0  0
   -1.2344   -3.2508    0.1281 H   0  0  0  0  0  0
   -0.9958   -3.7535   -1.5345 H   0  0  0  0  0  0
   -3.0913    0.6295   -2.1115 H   0  0  0  0  0  0
   -3.8351    0.9966   -0.5624 H   0  0  0  0  0  0
   -3.7475   -1.8760    0.8432 H   0  0  0  0  0  0
   -3.3934   -0.2636    1.4316 H   0  0  0  0  0  0
   -2.1574   -1.5229    1.5186 H   0  0  0  0  0  0
    5.4662    3.9573    0.7685 H   0  0  0  0  0  0
    5.6281    2.3195    0.4162 H   0  0  0  0  0  0
   -2.9708   -3.4000   -2.7658 H   0  0  0  0  0  0
   -5.4280    0.0700   -2.2109 H   0  0  0  0  0  0
   -5.3290   -0.9830   -0.7865 H   0  0  0  0  0  0
    3.8813    2.6067   -1.4054 H   0  0  0  0  0  0
   -1.4548    2.3942    1.6595 H   0  0  0  0  0  0
    6.3057    2.7528    2.5830 H   0  0  0  0  0  0
  1  2  1  0  0  0
  1  3  1  0  0  0
  1  4  1  0  0  0
  1 27  1  0  0  0
  2  5  1  0  0  0
  2  6  1  0  0  0
  2 28  1  0  0  0
  3  7  1  0  0  0
  3  8  1  0  0  0
  3  9  1  0  0  0
  4 10  1  0  0  0
  4 29  1  0  0  0
  4 30  1  0  0  0
  5 11  1  0  0  0
  5 12  1  0  0  0
  5 31  1  0  0  0
  6 13  1  0  0  0
  6 32  1  0  0  0
  6 33  1  0  0  0
  7 10  1  0  0  0
  7 14  1  0  0  0
  7 15  1  0  0  0
  8 12  1  0  0  0
  8 34  1  0  0  0
  8 35  1  0  0  0
  9 36  1  0  0  0
  9 37  1  0  0  0
  9 38  1  0  0  0
 10 39  1  0  0  0
 10 40  1  0  0  0
 11 16  1  0  0  0
 11 17  1  0  0  0
 11 18  1  0  0  0
 12 19  1  0  0  0
 12 41  1  0  0  0
 13 16  1  0  0  0
 13 42  1  0  0  0
 13 43  1  0  0  0
 14 20  1  0  0  0
 14 21  2  0  0  0
 15 54  1  0  0  0
 16 22  2  0  0  0
 17 23  1  0  0  0
 17 44  1  0  0  0
 17 45  1  0  0  0
 18 46  1  0  0  0
 18 47  1  0  0  0
 18 48  1  0  0  0
 19 55  1  0  0  0
 20 24  1  0  0  0
 20 49  1  0  0  0
 20 50  1  0  0  0
 22 25  1  0  0  0
 22 51  1  0  0  0
 23 25  1  0  0  0
 23 52  1  0  0  0
 23 53  1  0  0  0
 24 56  1  0  0  0
 25 26  2  0  0  0
M  END
>  <Name>
tox-135

>  <substance>
Cortisol

>  <CASRN>
50-23-7

>  <from_NCI>
1

>  <RBA>
0.000000

>  <method>
MUC

>  <chemical_class>
Steroid, phenolic

>  <set>
1

$$$$
tox-136
  Cerius2 12190218263D 1   1.00000                          
 Structure written by MMmdl.
 28 31  0  0  0  0  0  0  0  0999 V2000
    0.4587   -1.3030   -0.3030 C   0  0  0  0  0  0
    0.2991    0.0655   -0.2355 C   0  0  0  0  0  0
   -0.8174   -1.8386   -0.6332 C   0  0  0  0  0  0
    1.7308   -1.9420   -0.0624 C   0  0  0  0  0  0
    1.3630    0.9128    0.0707 C   0  0  0  0  0  0
   -0.9913    0.4120   -0.5023 O   0  0  0  0  0  0
   -1.6671   -0.7468   -0.7432 C   0  0  0  0  0  0
   -1.3635   -3.1102   -0.8533 C   0  0  0  0  0  0
    2.7975   -1.0765    0.2462 O   0  0  0  0  0  0
    1.9045   -3.1591   -0.1156 O   0  0  0  0  0  0
    2.6044    0.3235    0.3087 C   0  0  0  0  0  0
    1.2475    2.3035    0.1500 C   0  0  0  0  0  0
   -3.0278   -0.8439   -1.0590 C   0  0  0  0  0  0
   -2.7359   -3.2119   -1.1721 C   0  0  0  0  0  0
    3.7229    1.1078    0.6233 C   0  0  0  0  0  0
    2.3815    3.0718    0.4670 C   0  0  0  0  0  0
   -3.6113   -2.1093   -1.2870 C   0  0  0  0  0  0
    3.6576    2.5148    0.7156 C   0  0  0  0  0  0
   -4.8424   -2.2463   -1.5763 O   0  0  0  0  0  0
    4.6703    3.2289    1.0010 O   0  0  0  0  0  0
   -0.7543   -4.0085   -0.7832 H   0  0  0  0  0  0
    0.2956    2.7998   -0.0291 H   0  0  0  0  0  0
   -3.6222    0.0668   -1.1248 H   0  0  0  0  0  0
   -3.1270   -4.2216   -1.3372 H   0  0  0  0  0  0
    4.6730    0.5984    0.8012 H   0  0  0  0  0  0
    2.2503    4.1571    0.5196 H   0  0  0  0  0  0
   -5.0192   -3.0714   -1.6788 H   0  0  0  0  0  0
    4.4451    4.0484    1.0121 H   0  0  0  0  0  0
  1  2  2  0  0  0
  1  3  1  0  0  0
  1  4  1  0  0  0
  2  5  1  0  0  0
  2  6  1  0  0  0
  3  7  2  0  0  0
  3  8  1  0  0  0
  4  9  1  0  0  0
  4 10  2  0  0  0
  5 11  2  0  0  0
  5 12  1  0  0  0
  6  7  1  0  0  0
  7 13  1  0  0  0
  8 14  2  0  0  0
  8 21  1  0  0  0
  9 11  1  0  0  0
 11 15  1  0  0  0
 12 16  2  0  0  0
 12 22  1  0  0  0
 13 17  2  0  0  0
 13 23  1  0  0  0
 14 17  1  0  0  0
 14 24  1  0  0  0
 15 18  2  0  0  0
 15 25  1  0  0  0
 16 18  1  0  0  0
 16 26  1  0  0  0
 17 19  1  0  0  0
 18 20  1  0  0  0
 19 27  1  0  0  0
 20 28  1  0  0  0
M  END
>  <Name>
tox-136

>  <substance>
Coumestrol

>  <CASRN>
479-13-0

>  <from_NCI>
1

>  <RBA>
20.000000

>  <method>
GST-hERadef,GST-mERadef,hERa,hERa,hERa,hERa-FP,MCF-7 cytosol,RUC,RUC

>  <chemical_class>
Coumarin; Phenol

>  <set>
2

$$$$
tox-137
  Cerius2 12190218263D 1   1.00000                          
 Structure written by MMmdl.
 32 33  0  0  0  0  0  0  0  0999 V2000
   -1.6097    0.1449    1.6581 C   0  0  0  0  0  0
   -0.0783   -0.0789    1.6756 C   0  0  0  0  0  0
   -2.1597    0.1196    0.2087 C   0  0  0  0  0  0
   -2.4038   -0.9295    2.4496 C   0  0  0  0  0  0
   -1.8697    1.4852    2.3978 C   0  0  0  0  0  0
    0.5425   -1.0928    2.4116 C   0  0  0  0  0  0
    0.7664    0.7662    0.9405 C   0  0  0  0  0  0
   -1.9284   -1.0088   -0.6060 C   0  0  0  0  0  0
   -2.9049    1.1758   -0.3440 C   0  0  0  0  0  0
    1.9436   -1.2470    2.4045 C   0  0  0  0  0  0
    2.1637    0.5954    0.9466 C   0  0  0  0  0  0
   -2.4175   -1.0758   -1.9131 C   0  0  0  0  0  0
   -3.3940    1.1076   -1.6531 C   0  0  0  0  0  0
    2.8127   -0.4148    1.6768 C   0  0  0  0  0  0
   -3.1510   -0.0166   -2.4367 C   0  0  0  0  0  0
    4.0758   -0.5636    1.6795 O   0  0  0  0  0  0
   -3.4840   -0.7462    2.3883 H   0  0  0  0  0  0
   -2.1366   -0.9268    3.5133 H   0  0  0  0  0  0
   -2.2284   -1.9427    2.0694 H   0  0  0  0  0  0
   -2.9424    1.6861    2.5053 H   0  0  0  0  0  0
   -1.4244    2.3416    1.8780 H   0  0  0  0  0  0
   -1.4429    1.4666    3.4087 H   0  0  0  0  0  0
   -0.0328   -1.7929    3.0138 H   0  0  0  0  0  0
    0.3497    1.5767    0.3425 H   0  0  0  0  0  0
   -1.3544   -1.8531   -0.2239 H   0  0  0  0  0  0
   -3.1252    2.0753    0.2268 H   0  0  0  0  0  0
    2.3575   -2.0631    3.0046 H   0  0  0  0  0  0
    2.7551    1.2935    0.3471 H   0  0  0  0  0  0
   -2.2232   -1.9577   -2.5209 H   0  0  0  0  0  0
   -3.9685    1.9385   -2.0598 H   0  0  0  0  0  0
   -3.5330   -0.0663   -3.4545 H   0  0  0  0  0  0
    4.4320    0.0289    1.1850 H   0  0  0  0  0  0
  1  2  1  0  0  0
  1  3  1  0  0  0
  1  4  1  0  0  0
  1  5  1  0  0  0
  2  6  2  0  0  0
  2  7  1  0  0  0
  3  8  2  0  0  0
  3  9  1  0  0  0
  4 17  1  0  0  0
  4 18  1  0  0  0
  4 19  1  0  0  0
  5 20  1  0  0  0
  5 21  1  0  0  0
  5 22  1  0  0  0
  6 10  1  0  0  0
  6 23  1  0  0  0
  7 11  2  0  0  0
  7 24  1  0  0  0
  8 12  1  0  0  0
  8 25  1  0  0  0
  9 13  2  0  0  0
  9 26  1  0  0  0
 10 14  2  0  0  0
 10 27  1  0  0  0
 11 14  1  0  0  0
 11 28  1  0  0  0
 12 15  2  0  0  0
 12 29  1  0  0  0
 13 15  1  0  0  0
 13 30  1  0  0  0
 14 16  1  0  0  0
 15 31  1  0  0  0
 16 32  1  0  0  0
M  END
>  <Name>
tox-137

>  <substance>
p -Cumyl phenol

>  <CASRN>
599-64-4

>  <from_NCI>
1

>  <RBA>
0.005000

>  <method>
RUC

>  <chemical_class>
Phenol

>  <set>
0

$$$$
tox-138
  Cerius2 12190218263D 1   1.00000                          
 Structure written by MMmdl.
 41 43  0  0  0  0  0  0  0  0999 V2000
   -0.4163    0.6166   -0.1276 C   0  0  0  0  0  0
    0.9176   -0.0314   -0.1726 C   0  0  0  0  0  0
   -1.3564    0.4520   -1.2636 C   0  0  0  0  0  0
   -0.7778    1.3586    0.9539 C   0  0  0  0  0  0
    2.0119    0.6247   -0.7341 C   0  0  0  0  0  0
    1.1068   -1.3134    0.3413 C   0  0  0  0  0  0
   -1.3629    1.3581   -2.3229 C   0  0  0  0  0  0
   -2.2522   -0.6154   -1.3001 C   0  0  0  0  0  0
   -2.1214    2.0582    1.1098 C   0  0  0  0  0  0
    0.1044    1.5931    2.1727 C   0  0  0  0  0  0
    3.2715    0.0003   -0.7725 C   0  0  0  0  0  0
    2.3754   -1.9186    0.2924 C   0  0  0  0  0  0
   -2.2581    1.1917   -3.3948 C   0  0  0  0  0  0
   -3.1386   -0.7623   -2.3820 C   0  0  0  0  0  0
   -2.8334    1.5949    2.3821 C   0  0  0  0  0  0
   -0.5949    1.1270    3.4509 C   0  0  0  0  0  0
    3.5085   -1.2922   -0.2637 C   0  0  0  0  0  0
   -3.1812    0.1299   -3.4719 C   0  0  0  0  0  0
   -1.9617    1.7866    3.6213 C   0  0  0  0  0  0
    4.6517   -1.8480   -0.3034 O   0  0  0  0  0  0
   -3.9867   -0.0118   -4.4457 O   0  0  0  0  0  0
    1.9037    1.6265   -1.1459 H   0  0  0  0  0  0
    0.2763   -1.8574    0.7879 H   0  0  0  0  0  0
   -0.6780    2.2043   -2.3303 H   0  0  0  0  0  0
   -2.2772   -1.3434   -0.4911 H   0  0  0  0  0  0
   -2.7931    1.8974    0.2622 H   0  0  0  0  0  0
   -1.9475    3.1409    1.1579 H   0  0  0  0  0  0
    0.3236    2.6663    2.2431 H   0  0  0  0  0  0
    1.0736    1.0910    2.1075 H   0  0  0  0  0  0
    4.0947    0.5620   -1.2236 H   0  0  0  0  0  0
    2.4662   -2.9248    0.7116 H   0  0  0  0  0  0
   -2.2204    1.9335   -4.1978 H   0  0  0  0  0  0
   -3.8205   -1.6173   -2.3576 H   0  0  0  0  0  0
   -3.1041    0.5356    2.2867 H   0  0  0  0  0  0
   -3.7685    2.1535    2.5037 H   0  0  0  0  0  0
    0.0330    1.3594    4.3186 H   0  0  0  0  0  0
   -0.7161    0.0365    3.4269 H   0  0  0  0  0  0
   -2.4680    1.3694    4.4990 H   0  0  0  0  0  0
   -1.8271    2.8591    3.8090 H   0  0  0  0  0  0
    4.6035   -2.6205    0.0478 H   0  0  0  0  0  0
   -4.4639   -0.7039   -4.3202 H   0  0  0  0  0  0
  1  2  1  0  0  0
  1  3  1  0  0  0
  1  4  2  0  0  0
  2  5  2  0  0  0
  2  6  1  0  0  0
  3  7  2  0  0  0
  3  8  1  0  0  0
  4  9  1  0  0  0
  4 10  1  0  0  0
  5 11  1  0  0  0
  5 22  1  0  0  0
  6 12  2  0  0  0
  6 23  1  0  0  0
  7 13  1  0  0  0
  7 24  1  0  0  0
  8 14  2  0  0  0
  8 25  1  0  0  0
  9 15  1  0  0  0
  9 26  1  0  0  0
  9 27  1  0  0  0
 10 16  1  0  0  0
 10 28  1  0  0  0
 10 29  1  0  0  0
 11 17  2  0  0  0
 11 30  1  0  0  0
 12 17  1  0  0  0
 12 31  1  0  0  0
 13 18  2  0  0  0
 13 32  1  0  0  0
 14 18  1  0  0  0
 14 33  1  0  0  0
 15 19  1  0  0  0
 15 34  1  0  0  0
 15 35  1  0  0  0
 16 19  1  0  0  0
 16 36  1  0  0  0
 16 37  1  0  0  0
 17 20  1  0  0  0
 18 21  1  0  0  0
 19 38  1  0  0  0
 19 39  1  0  0  0
 20 40  1  0  0  0
 21 41  1  0  0  0
M  END
>  <Name>
tox-138

>  <substance>
Cyclofenil diphenol

>  <CASRN>
5189-40-2

>  <from_NCI>
1

>  <RBA>
5.000000

>  <method>
MCF-7 cytosol

>  <chemical_class>
Bisphenol

>  <set>
2

$$$$
tox-139
  Cerius2 12190218263D 1   1.00000                          
 Structure written by MMmdl.
 45 49  0  0  0  0  0  0  0  0999 V2000
   -1.9524    2.1742   -3.1394 C   0  0  0  0  0  0
   -2.4728    2.7889   -4.2391 O   0  0  0  0  0  0
   -1.6193    2.9594   -2.0481 C   0  0  0  0  0  0
   -1.0901    2.3607   -0.9021 C   0  0  0  0  0  0
   -1.7471    0.8009   -3.1076 C   0  0  0  0  0  0
   -1.2012    0.1927   -1.9620 C   0  0  0  0  0  0
   -0.9852   -1.2977   -1.9837 C   0  0  0  0  0  0
   -0.0168   -1.7799   -0.9081 C   0  0  0  0  0  0
   -0.4233   -1.2171    0.4588 C   0  0  0  0  0  0
    0.3238   -1.8007    1.6651 C   0  0  0  0  0  0
    1.7973   -2.0860    1.6736 C   0  0  0  0  0  0
    2.3894   -1.6690    2.9952 C   0  0  0  0  0  0
    1.1921   -1.5409    3.9630 C   0  0  0  0  0  0
    1.0307   -2.7753    4.6732 O   0  0  0  0  0  0
   -0.0308   -1.1816    3.0405 C   0  0  0  0  0  0
   -1.3619   -1.7379    3.5617 C   0  0  0  0  0  0
   -0.0909    0.3625    2.9385 C   0  0  0  0  0  0
   -0.8830    0.8841    1.7431 C   0  0  0  0  0  0
   -0.2985    0.3323    0.4280 C   0  0  0  0  0  0
   -0.9032    0.9676   -0.8236 C   0  0  0  0  0  0
    0.8330   -3.2384    1.6105 C   0  0  0  0  0  0
   -2.6575    2.1050   -4.9179 H   0  0  0  0  0  0
   -1.7624    4.0371   -2.0792 H   0  0  0  0  0  0
   -0.8155    3.0113   -0.0740 H   0  0  0  0  0  0
   -1.9989    0.1887   -3.9720 H   0  0  0  0  0  0
   -0.5963   -1.6031   -2.9628 H   0  0  0  0  0  0
   -1.9580   -1.7870   -1.8483 H   0  0  0  0  0  0
    1.0075   -1.4748   -1.1564 H   0  0  0  0  0  0
   -0.0386   -2.8729   -0.9221 H   0  0  0  0  0  0
   -1.4819   -1.4784    0.6039 H   0  0  0  0  0  0
    2.4159   -1.8658    0.8170 H   0  0  0  0  0  0
    2.8803   -0.6979    2.8694 H   0  0  0  0  0  0
    3.1272   -2.3996    3.3405 H   0  0  0  0  0  0
    1.3897   -0.7729    4.7193 H   0  0  0  0  0  0
    0.3513   -2.6070    5.3583 H   0  0  0  0  0  0
   -1.5780   -1.3609    4.5672 H   0  0  0  0  0  0
   -1.3531   -2.8323    3.6053 H   0  0  0  0  0  0
   -2.1990   -1.4584    2.9140 H   0  0  0  0  0  0
    0.9245    0.7739    2.8598 H   0  0  0  0  0  0
   -0.5113    0.7800    3.8624 H   0  0  0  0  0  0
   -0.8339    1.9770    1.7777 H   0  0  0  0  0  0
   -1.9440    0.6219    1.8331 H   0  0  0  0  0  0
    0.7719    0.5860    0.3968 H   0  0  0  0  0  0
    0.8179   -3.8165    0.6962 H   0  0  0  0  0  0
    0.7139   -3.8776    2.4794 H   0  0  0  0  0  0
  1  2  1  0  0  0
  1  3  2  0  0  0
  1  5  1  0  0  0
  2 22  1  0  0  0
  3  4  1  0  0  0
  3 23  1  0  0  0
  4 20  2  0  0  0
  4 24  1  0  0  0
  5  6  2  0  0  0
  5 25  1  0  0  0
  6  7  1  0  0  0
  6 20  1  0  0  0
  7  8  1  0  0  0
  7 26  1  0  0  0
  7 27  1  0  0  0
  8  9  1  0  0  0
  8 28  1  0  0  0
  8 29  1  0  0  0
  9 10  1  0  0  0
  9 19  1  0  0  0
  9 30  1  0  0  0
 10 11  1  0  0  0
 10 15  1  0  0  0
 10 21  1  0  0  0
 11 12  1  0  0  0
 11 21  1  0  0  0
 11 31  1  0  0  0
 12 13  1  0  0  0
 12 32  1  0  0  0
 12 33  1  0  0  0
 13 14  1  0  0  0
 13 15  1  0  0  0
 13 34  1  0  0  0
 14 35  1  0  0  0
 15 16  1  0  0  0
 15 17  1  0  0  0
 16 36  1  0  0  0
 16 37  1  0  0  0
 16 38  1  0  0  0
 17 18  1  0  0  0
 17 39  1  0  0  0
 17 40  1  0  0  0
 18 19  1  0  0  0
 18 41  1  0  0  0
 18 42  1  0  0  0
 19 20  1  0  0  0
 19 43  1  0  0  0
 21 44  1  0  0  0
 21 45  1  0  0  0
M  END
>  <Name>
tox-139

>  <substance>
Cycloprop[14R ,15a]estra-1,3,5(10)- triene-3,17b-diol, 3',15-dihydro-

>  <CASRN>
73860-54-5

>  <from_NCI>
0

>  <RBA>
45.000000

>  <method>
MCF-7 cytosol

>  <chemical_class>
Steroid, phenolic

>  <set>
0

$$$$
tox-140
  Cerius2 12190218263D 1   1.00000                          
 Structure written by MMmdl.
 45 49  0  0  0  0  0  0  0  0999 V2000
   -3.1894   -1.3526    2.2538 C   0  0  0  0  0  0
   -2.8152   -0.8317    3.5022 C   0  0  0  0  0  0
   -1.5000   -0.3328    3.5469 C   0  0  0  0  0  0
   -2.3353   -1.3668    1.1359 C   0  0  0  0  0  0
   -1.0410   -0.8407    1.2022 C   0  0  0  0  0  0
   -0.6114   -0.3440    2.4437 C   0  0  0  0  0  0
    0.7724    0.2328    2.6436 C   0  0  0  0  0  0
    1.7565   -0.1771    1.5507 C   0  0  0  0  0  0
   -0.1011   -0.8915   -0.0015 C   0  0  0  0  0  0
    1.1211    0.0618    0.1800 C   0  0  0  0  0  0
    0.1711   -0.6371   -2.5776 C   0  0  0  0  0  0
   -0.7963   -0.6406   -1.3720 C   0  0  0  0  0  0
    1.3745    0.3064   -2.3698 C   0  0  0  0  0  0
    2.0302   -0.1169   -1.0232 C   0  0  0  0  0  0
    3.5027    0.1302   -1.1630 C   0  0  0  0  0  0
    3.8055    0.5691   -2.5816 C   0  0  0  0  0  0
    2.5623    0.1078   -3.4250 C   0  0  0  0  0  0
    2.4694    0.8465   -4.5215 O   0  0  0  0  0  0
    0.8935    1.7891   -2.3062 C   0  0  0  0  0  0
    3.0328   -1.2759   -0.9424 C   0  0  0  0  0  0
   -3.5944   -0.8169    4.5069 O   0  0  0  0  0  0
   -4.1899   -1.7758    2.1233 H   0  0  0  0  0  0
   -1.1314    0.0870    4.4889 H   0  0  0  0  0  0
   -2.7162   -1.8104    0.2179 H   0  0  0  0  0  0
    1.1727   -0.0896    3.6124 H   0  0  0  0  0  0
    0.6861    1.3263    2.6683 H   0  0  0  0  0  0
    2.0131   -1.2349    1.6845 H   0  0  0  0  0  0
    2.6826    0.3976    1.6625 H   0  0  0  0  0  0
    0.2824   -1.9229   -0.0297 H   0  0  0  0  0  0
    0.7696    1.0999    0.1947 H   0  0  0  0  0  0
   -0.3776   -0.3611   -3.4858 H   0  0  0  0  0  0
    0.5288   -1.6642   -2.7264 H   0  0  0  0  0  0
   -1.3515    0.3045   -1.3371 H   0  0  0  0  0  0
   -1.5426   -1.4202   -1.5639 H   0  0  0  0  0  0
    4.0433    0.6601   -0.3974 H   0  0  0  0  0  0
    4.7279    0.1030   -2.9474 H   0  0  0  0  0  0
    3.9460    1.6579   -2.5971 H   0  0  0  0  0  0
    2.6709   -0.9786   -3.5578 H   0  0  0  0  0  0
    1.7152    2.4652   -2.0465 H   0  0  0  0  0  0
    0.1052    1.9578   -1.5688 H   0  0  0  0  0  0
    0.4754    2.1094   -3.2670 H   0  0  0  0  0  0
    3.0631   -1.9925   -1.7541 H   0  0  0  0  0  0
    3.2873   -1.7302    0.0057 H   0  0  0  0  0  0
    3.1323    0.6855   -5.0286 H   0  0  0  0  0  0
   -3.1953   -0.4652    5.1699 H   0  0  0  0  0  0
  1  2  2  0  0  0
  1  4  1  0  0  0
  1 22  1  0  0  0
  2  3  1  0  0  0
  2 21  1  0  0  0
  3  6  2  0  0  0
  3 23  1  0  0  0
  4  5  2  0  0  0
  4 24  1  0  0  0
  5  6  1  0  0  0
  5  9  1  0  0  0
  6  7  1  0  0  0
  7  8  1  0  0  0
  7 25  1  0  0  0
  7 26  1  0  0  0
  8 10  1  0  0  0
  8 27  1  0  0  0
  8 28  1  0  0  0
  9 10  1  0  0  0
  9 12  1  0  0  0
  9 29  1  0  0  0
 10 14  1  0  0  0
 10 30  1  0  0  0
 11 12  1  0  0  0
 11 13  1  0  0  0
 11 31  1  0  0  0
 11 32  1  0  0  0
 12 33  1  0  0  0
 12 34  1  0  0  0
 13 14  1  0  0  0
 13 17  1  0  0  0
 13 19  1  0  0  0
 14 15  1  0  0  0
 14 20  1  0  0  0
 15 16  1  0  0  0
 15 20  1  0  0  0
 15 35  1  0  0  0
 16 17  1  0  0  0
 16 36  1  0  0  0
 16 37  1  0  0  0
 17 18  1  0  0  0
 17 38  1  0  0  0
 18 44  1  0  0  0
 19 39  1  0  0  0
 19 40  1  0  0  0
 19 41  1  0  0  0
 20 42  1  0  0  0
 20 43  1  0  0  0
 21 45  1  0  0  0
M  END
>  <Name>
tox-140

>  <substance>
Cycloprop[14S ,15S]estra-1,3,5(10)- triene-3,17b-diol, 3',15-dihydro-

>  <CASRN>
105455-76-3

>  <from_NCI>
1

>  <RBA>
100.000000

>  <method>
MCF-7 cytosol

>  <chemical_class>
Steroid, phenolic

>  <set>
0

$$$$
tox-141
  Cerius2 12190218263D 1   1.00000                          
 Structure written by MMmdl.
 47 49  0  0  0  0  0  0  0  0999 V2000
   -4.0807   -0.3344    1.5325 C   0  0  0  0  0  0
   -5.1767   -1.1757    2.1508 C   0  0  0  0  0  0
   -3.7666   -1.2540    2.7091 C   0  0  0  0  0  0
   -3.4378   -0.5710    0.2165 C   0  0  0  0  0  0
   -5.7965   -2.3059    1.4421 C   0  0  0  0  0  0
   -3.5161   -0.6018    4.0481 C   0  0  0  0  0  0
   -2.9147   -2.4839    2.4874 C   0  0  0  0  0  0
   -2.2352    0.0541    0.1593 O   0  0  0  0  0  0
   -3.9400   -1.2306   -0.6815 O   0  0  0  0  0  0
   -6.7964   -2.2512    0.5475 C   0  0  0  0  0  0
   -1.4970   -0.1429   -1.0698 C   0  0  0  0  0  0
   -7.4265   -3.6987   -0.1565 Cl  0  0  0  0  0  0
   -7.5176   -0.7559    0.0669 Cl  0  0  0  0  0  0
   -0.0601    0.2868   -0.7998 C   0  0  0  0  0  0
   -2.0835    0.6333   -2.1929 C   0  0  0  0  0  0
    1.0104   -0.5200   -1.2214 C   0  0  0  0  0  0
    0.2295    1.5020   -0.1521 C   0  0  0  0  0  0
   -2.5549    1.2440   -3.0671 N   0  0  0  0  0  0
    2.3304   -0.1127   -1.0105 C   0  0  0  0  0  0
    1.5502    1.8919    0.0803 C   0  0  0  0  0  0
    3.3260   -0.9693   -1.4259 O   0  0  0  0  0  0
    2.6027    1.0818   -0.3414 C   0  0  0  0  0  0
    4.3656   -0.4183   -2.1408 C   0  0  0  0  0  0
    4.1595    0.4156   -3.2436 C   0  0  0  0  0  0
    5.6596   -0.7824   -1.7680 C   0  0  0  0  0  0
    5.2555    0.9176   -3.9464 C   0  0  0  0  0  0
    6.7538   -0.2781   -2.4725 C   0  0  0  0  0  0
    6.5509    0.5757   -3.5579 C   0  0  0  0  0  0
   -4.1554    0.7292    1.7483 H   0  0  0  0  0  0
   -5.9007   -0.6359    2.7605 H   0  0  0  0  0  0
   -5.4264   -3.2950    1.7064 H   0  0  0  0  0  0
   -3.7826   -1.2870    4.8591 H   0  0  0  0  0  0
   -4.1018    0.3147    4.1759 H   0  0  0  0  0  0
   -2.4586   -0.3388    4.1519 H   0  0  0  0  0  0
   -3.1638   -3.2508    3.2292 H   0  0  0  0  0  0
   -1.8535   -2.2337    2.5974 H   0  0  0  0  0  0
   -3.0458   -2.9260    1.4942 H   0  0  0  0  0  0
   -1.5006   -1.2148   -1.3086 H   0  0  0  0  0  0
    0.8230   -1.4672   -1.7245 H   0  0  0  0  0  0
   -0.5760    2.1549    0.1850 H   0  0  0  0  0  0
    1.7581    2.8292    0.5943 H   0  0  0  0  0  0
    3.6264    1.3900   -0.1417 H   0  0  0  0  0  0
    3.1537    0.6761   -3.5648 H   0  0  0  0  0  0
    5.8195   -1.4512   -0.9249 H   0  0  0  0  0  0
    5.0989    1.5742   -4.8007 H   0  0  0  0  0  0
    7.7650   -0.5515   -2.1768 H   0  0  0  0  0  0
    7.4044    0.9696   -4.1070 H   0  0  0  0  0  0
  1  2  1  0  0  0
  1  3  1  0  0  0
  1  4  1  0  0  0
  1 29  1  0  0  0
  2  3  1  0  0  0
  2  5  1  0  0  0
  2 30  1  0  0  0
  3  6  1  0  0  0
  3  7  1  0  0  0
  4  8  1  0  0  0
  4  9  2  0  0  0
  5 10  2  0  0  0
  5 31  1  0  0  0
  6 32  1  0  0  0
  6 33  1  0  0  0
  6 34  1  0  0  0
  7 35  1  0  0  0
  7 36  1  0  0  0
  7 37  1  0  0  0
  8 11  1  0  0  0
 10 12  1  0  0  0
 10 13  1  0  0  0
 11 14  1  0  0  0
 11 15  1  0  0  0
 11 38  1  0  0  0
 14 16  2  0  0  0
 14 17  1  0  0  0
 15 18  3  0  0  0
 16 19  1  0  0  0
 16 39  1  0  0  0
 17 20  2  0  0  0
 17 40  1  0  0  0
 19 21  1  0  0  0
 19 22  2  0  0  0
 20 22  1  0  0  0
 20 41  1  0  0  0
 21 23  1  0  0  0
 22 42  1  0  0  0
 23 24  2  0  0  0
 23 25  1  0  0  0
 24 26  1  0  0  0
 24 43  1  0  0  0
 25 27  2  0  0  0
 25 44  1  0  0  0
 26 28  2  0  0  0
 26 45  1  0  0  0
 27 28  1  0  0  0
 27 46  1  0  0  0
 28 47  1  0  0  0
M  END
>  <Name>
tox-141

>  <substance>
Cypermethrin

>  <CASRN>
52315-07-8

>  <from_NCI>
1

>  <RBA>
0.000000

>  <method>
hERa-FP

>  <chemical_class>
Organochlorine; Nitrile; Diphenyl ether

>  <set>
1

$$$$
tox-142
  Cerius2 12190218263D 1   1.00000                          
 Structure written by MMmdl.
 29 31  0  0  0  0  0  0  0  0999 V2000
    4.4188    3.4586   -2.0376 O   0  0  0  0  0  0
    3.3895    2.8727   -1.5755 C   0  0  0  0  0  0
    2.3166    3.5732   -0.9864 C   0  0  0  0  0  0
    1.1740    2.9379   -0.4721 C   0  0  0  0  0  0
    1.0686    1.5514   -0.5342 C   0  0  0  0  0  0
   -0.1148    0.8466   -0.0026 C   0  0  0  0  0  0
   -1.0339    1.4657    0.5283 O   0  0  0  0  0  0
   -0.1162   -0.6392   -0.1389 C   0  0  0  0  0  0
   -1.2427   -1.4732    0.3140 C   0  0  0  0  0  0
   -2.5392   -1.2359   -0.1414 C   0  0  0  0  0  0
   -3.6099   -2.0409    0.2891 C   0  0  0  0  0  0
   -3.4557   -3.1142    1.1867 C   0  0  0  0  0  0
   -4.4294   -3.8362    1.5700 O   0  0  0  0  0  0
   -2.1343   -3.3215    1.6254 C   0  0  0  0  0  0
   -1.0501   -2.5288    1.2068 C   0  0  0  0  0  0
    0.9562   -1.2016   -0.7196 C   0  0  0  0  0  0
    2.0674   -0.5513   -1.2014 O   0  0  0  0  0  0
    2.0968    0.8166   -1.1039 C   0  0  0  0  0  0
    3.2308    1.4709   -1.6117 C   0  0  0  0  0  0
    2.3578    4.6645   -0.9171 H   0  0  0  0  0  0
    0.3822    3.5385   -0.0298 H   0  0  0  0  0  0
   -2.7432   -0.4259   -0.8405 H   0  0  0  0  0  0
   -4.6029   -1.8050   -0.1049 H   0  0  0  0  0  0
   -1.9193   -4.1331    2.3267 H   0  0  0  0  0  0
   -0.0588   -2.7534    1.5988 H   0  0  0  0  0  0
    1.0637   -2.2682   -0.8846 H   0  0  0  0  0  0
    4.0180    0.8534   -2.0523 H   0  0  0  0  0  0
    4.9569    2.8804   -2.3516 H   0  0  0  0  0  0
   -4.1468   -4.4308    2.1076 H   0  0  0  0  0  0
  1  2  1  0  0  0
  1 28  1  0  0  0
  2  3  2  0  0  0
  2 19  1  0  0  0
  3  4  1  0  0  0
  3 20  1  0  0  0
  4  5  2  0  0  0
  4 21  1  0  0  0
  5  6  1  0  0  0
  5 18  1  0  0  0
  6  7  2  0  0  0
  6  8  1  0  0  0
  8  9  1  0  0  0
  8 16  2  0  0  0
  9 10  2  0  0  0
  9 15  1  0  0  0
 10 11  1  0  0  0
 10 22  1  0  0  0
 11 12  2  0  0  0
 11 23  1  0  0  0
 12 13  1  0  0  0
 12 14  1  0  0  0
 13 29  1  0  0  0
 14 15  2  0  0  0
 14 24  1  0  0  0
 15 25  1  0  0  0
 16 17  1  0  0  0
 16 26  1  0  0  0
 17 18  1  0  0  0
 18 19  2  0  0  0
 19 27  1  0  0  0
M  END
>  <Name>
tox-142

>  <substance>
Daidzein

>  <CASRN>
486-66-8

>  <from_NCI>
1

>  <RBA>
0.100000

>  <method>
hERa,hERa,hERa,hERa-FP,RUC

>  <chemical_class>
Isoflavone

>  <set>
0

$$$$
tox-143
  Cerius2 12190218263D 1   1.00000                          
 Structure written by MMmdl.
 28 29  0  0  0  0  0  0  0  0999 V2000
   -0.1384   -0.0631   -1.5260 C   0  0  0  0  0  0
    1.1350    0.8022   -1.4959 C   0  0  0  0  0  0
    1.3783    1.7218   -2.7312 C   0  0  0  0  0  0
   -0.1814   -1.2192   -0.7176 C   0  0  0  0  0  0
    1.3320    1.4948   -0.1392 C   0  0  0  0  0  0
    2.5742    1.4131    0.5142 C   0  0  0  0  0  0
    0.2955    2.2115    0.4840 C   0  0  0  0  0  0
   -1.3102   -2.0396   -0.6969 C   0  0  0  0  0  0
    3.1274    2.1333   -2.9184 Cl  0  0  0  0  0  0
    0.4685    3.2720   -2.7215 Cl  0  0  0  0  0  0
    1.7359    2.7405    2.3482 C   0  0  0  0  0  0
    0.4968    2.8317    1.7205 C   0  0  0  0  0  0
    2.7754    2.0333    1.7505 C   0  0  0  0  0  0
   -1.3310   -3.4421    0.3013 Cl  0  0  0  0  0  0
    1.9834    3.5038    3.8710 Cl  0  0  0  0  0  0
   -1.2658    0.2344   -2.3062 C   0  0  0  0  0  0
   -2.3943   -0.5927   -2.2823 C   0  0  0  0  0  0
   -2.4180   -1.7303   -1.4782 C   0  0  0  0  0  0
    1.9299    0.0413   -1.5684 H   0  0  0  0  0  0
    1.1058    1.2012   -3.6543 H   0  0  0  0  0  0
    0.6758   -1.4766   -0.0966 H   0  0  0  0  0  0
    3.4004    0.8627    0.0650 H   0  0  0  0  0  0
   -0.6831    2.2948    0.0130 H   0  0  0  0  0  0
   -0.3194    3.3815    2.1831 H   0  0  0  0  0  0
    3.7452    1.9574    2.2367 H   0  0  0  0  0  0
   -1.3035    1.1112   -2.9476 H   0  0  0  0  0  0
   -3.2599   -0.3444   -2.8947 H   0  0  0  0  0  0
   -3.3009   -2.3646   -1.4674 H   0  0  0  0  0  0
  1  2  1  0  0  0
  1  4  2  0  0  0
  1 16  1  0  0  0
  2  3  1  0  0  0
  2  5  1  0  0  0
  2 19  1  0  0  0
  3  9  1  0  0  0
  3 10  1  0  0  0
  3 20  1  0  0  0
  4  8  1  0  0  0
  4 21  1  0  0  0
  5  6  2  0  0  0
  5  7  1  0  0  0
  6 13  1  0  0  0
  6 22  1  0  0  0
  7 12  2  0  0  0
  7 23  1  0  0  0
  8 14  1  0  0  0
  8 18  2  0  0  0
 11 12  1  0  0  0
 11 13  2  0  0  0
 11 15  1  0  0  0
 12 24  1  0  0  0
 13 25  1  0  0  0
 16 17  2  0  0  0
 16 26  1  0  0  0
 17 18  1  0  0  0
 17 27  1  0  0  0
 18 28  1  0  0  0
M  END
>  <Name>
tox-143

>  <substance>
m,p '-DDD

>  <CASRN>
4329-12-8

>  <from_NCI>
1

>  <RBA>
0.000000

>  <method>
RUC

>  <chemical_class>
Organochlorine

>  <set>
1

$$$$
tox-144
  Cerius2 12190218263D 1   1.00000                          
 Structure written by MMmdl.
 28 29  0  0  0  0  0  0  0  0999 V2000
   -0.4348    0.8825    1.6425 C   0  0  0  0  0  0
    0.8550    0.0465    1.7301 C   0  0  0  0  0  0
   -1.1943    0.5879    0.3367 C   0  0  0  0  0  0
   -0.2523    2.3812    2.0213 C   0  0  0  0  0  0
    2.0138    0.2663    0.9640 C   0  0  0  0  0  0
    0.8705   -1.0304    2.6460 C   0  0  0  0  0  0
   -1.8617   -0.6464    0.2059 C   0  0  0  0  0  0
   -1.2485    1.4839   -0.7429 C   0  0  0  0  0  0
    0.6150    2.5875    3.5913 Cl  0  0  0  0  0  0
   -1.8451    3.2157    2.2113 Cl  0  0  0  0  0  0
    3.1381   -0.5568    1.1195 C   0  0  0  0  0  0
    2.1513    1.5303   -0.2033 Cl  0  0  0  0  0  0
    1.9935   -1.8466    2.7958 C   0  0  0  0  0  0
   -2.5599   -0.9711   -0.9605 C   0  0  0  0  0  0
   -1.9475    1.1592   -1.9110 C   0  0  0  0  0  0
    3.1291   -1.6094    2.0323 C   0  0  0  0  0  0
   -2.5998   -0.0657   -2.0152 C   0  0  0  0  0  0
   -3.4576   -0.4614   -3.4539 Cl  0  0  0  0  0  0
   -1.1050    0.4970    2.4284 H   0  0  0  0  0  0
    0.3079    2.9528    1.2806 H   0  0  0  0  0  0
   -0.0044   -1.2445    3.2606 H   0  0  0  0  0  0
   -1.8425   -1.3709    1.0200 H   0  0  0  0  0  0
   -0.7495    2.4499   -0.7065 H   0  0  0  0  0  0
    4.0337   -0.3830    0.5254 H   0  0  0  0  0  0
    1.9776   -2.6679    3.5103 H   0  0  0  0  0  0
   -3.0659   -1.9308   -1.0333 H   0  0  0  0  0  0
   -1.9737    1.8707   -2.7333 H   0  0  0  0  0  0
    4.0069   -2.2426    2.1448 H   0  0  0  0  0  0
  1  2  1  0  0  0
  1  3  1  0  0  0
  1  4  1  0  0  0
  1 19  1  0  0  0
  2  5  2  0  0  0
  2  6  1  0  0  0
  3  7  2  0  0  0
  3  8  1  0  0  0
  4  9  1  0  0  0
  4 10  1  0  0  0
  4 20  1  0  0  0
  5 11  1  0  0  0
  5 12  1  0  0  0
  6 13  2  0  0  0
  6 21  1  0  0  0
  7 14  1  0  0  0
  7 22  1  0  0  0
  8 15  2  0  0  0
  8 23  1  0  0  0
 11 16  2  0  0  0
 11 24  1  0  0  0
 13 16  1  0  0  0
 13 25  1  0  0  0
 14 17  2  0  0  0
 14 26  1  0  0  0
 15 17  1  0  0  0
 15 27  1  0  0  0
 16 28  1  0  0  0
 17 18  1  0  0  0
M  END
>  <Name>
tox-144

>  <substance>
o,p '-DDD

>  <CASRN>
53-19-0

>  <from_NCI>
1

>  <RBA>
0.002000

>  <method>
hERa,hERa,RUC,RUC

>  <chemical_class>
Organochlorine; Diphenylalkane

>  <set>
0

$$$$
tox-147
  Cerius2 12190218263D 1   1.00000                          
 Structure written by MMmdl.
 37 39  0  0  0  0  0  0  0  0999 V2000
    0.7150   -1.9199    0.2845 C   0  0  0  0  0  0
   -0.0497   -0.6125    0.0968 C   0  0  0  0  0  0
    0.7638    0.4559   -0.0575 C   0  0  0  0  0  0
    2.1441   -0.0295    0.0475 C   0  0  0  0  0  0
    3.3454    0.6609   -0.0233 C   0  0  0  0  0  0
    4.5402   -0.0565    0.0979 C   0  0  0  0  0  0
    4.5158   -1.4429    0.2848 C   0  0  0  0  0  0
    3.3147   -2.1436    0.3585 C   0  0  0  0  0  0
    2.1355   -1.4187    0.2431 C   0  0  0  0  0  0
    5.7137   -2.0887    0.3922 O   0  0  0  0  0  0
   -1.5142   -0.6163    0.0262 C   0  0  0  0  0  0
   -2.1736   -1.3826   -0.9432 C   0  0  0  0  0  0
   -3.5694   -1.4041   -1.0020 C   0  0  0  0  0  0
   -4.3185   -0.6643   -0.0891 C   0  0  0  0  0  0
   -3.6732    0.0959    0.8842 C   0  0  0  0  0  0
   -2.2776    0.1180    0.9430 C   0  0  0  0  0  0
    0.4315    1.8938   -0.3058 C   0  0  0  0  0  0
    0.5850    2.2758   -1.7720 C   0  0  0  0  0  0
    0.3897   -2.6210    1.6007 C   0  0  0  0  0  0
    0.5447   -2.5909   -0.5658 H   0  0  0  0  0  0
    3.3739    1.7365   -0.1717 H   0  0  0  0  0  0
    5.4914    0.4693    0.0437 H   0  0  0  0  0  0
    3.2906   -3.2198    0.5004 H   0  0  0  0  0  0
    5.5388   -3.0459    0.5180 H   0  0  0  0  0  0
   -1.6081   -1.9640   -1.6698 H   0  0  0  0  0  0
   -4.0717   -1.9995   -1.7625 H   0  0  0  0  0  0
   -5.4060   -0.6818   -0.1349 H   0  0  0  0  0  0
   -4.2562    0.6706    1.6016 H   0  0  0  0  0  0
   -1.7913    0.7075    1.7190 H   0  0  0  0  0  0
    1.0654    2.5388    0.3141 H   0  0  0  0  0  0
   -0.5963    2.1150   -0.0012 H   0  0  0  0  0  0
    0.3179    3.3277   -1.9161 H   0  0  0  0  0  0
   -0.0711    1.6717   -2.4079 H   0  0  0  0  0  0
    1.6142    2.1415   -2.1197 H   0  0  0  0  0  0
    1.0168   -3.5088    1.7380 H   0  0  0  0  0  0
   -0.6549   -2.9493    1.6242 H   0  0  0  0  0  0
    0.5554   -1.9646    2.4632 H   0  0  0  0  0  0
  1  2  1  0  0  0
  1  9  1  0  0  0
  1 19  1  0  0  0
  1 20  1  0  0  0
  2  3  2  0  0  0
  2 11  1  0  0  0
  3  4  1  0  0  0
  3 17  1  0  0  0
  4  5  2  0  0  0
  4  9  1  0  0  0
  5  6  1  0  0  0
  5 21  1  0  0  0
  6  7  2  0  0  0
  6 22  1  0  0  0
  7  8  1  0  0  0
  7 10  1  0  0  0
  8  9  2  0  0  0
  8 23  1  0  0  0
 10 24  1  0  0  0
 11 12  2  0  0  0
 11 16  1  0  0  0
 12 13  1  0  0  0
 12 25  1  0  0  0
 13 14  2  0  0  0
 13 26  1  0  0  0
 14 15  1  0  0  0
 14 27  1  0  0  0
 15 16  2  0  0  0
 15 28  1  0  0  0
 16 29  1  0  0  0
 17 18  1  0  0  0
 17 30  1  0  0  0
 17 31  1  0  0  0
 18 32  1  0  0  0
 18 33  1  0  0  0
 18 34  1  0  0  0
 19 35  1  0  0  0
 19 36  1  0  0  0
 19 37  1  0  0  0
M  END
>  <Name>
tox-147

>  <substance>
(R )-4'-Deoxyindenestrol A

>  <CASRN>
138515-00-1

>  <from_NCI>
0

>  <RBA>
0.200000

>  <method>
MUC

>  <chemical_class>
Stilbene

>  <set>
0

$$$$
tox-148
  Cerius2 12190218263D 1   1.00000                          
 Structure written by MMmdl.
 37 39  0  0  0  0  0  0  0  0999 V2000
    1.0222   -1.9323    0.2412 C   0  0  0  0  0  0
    0.2586   -0.6249    0.0475 C   0  0  0  0  0  0
    1.0734    0.4451   -0.0880 C   0  0  0  0  0  0
    2.4524   -0.0394    0.0380 C   0  0  0  0  0  0
    3.6540    0.6518   -0.0087 C   0  0  0  0  0  0
    4.8472   -0.0648    0.1299 C   0  0  0  0  0  0
    4.8301   -1.4558    0.3110 C   0  0  0  0  0  0
    3.6204   -2.1500    0.3593 C   0  0  0  0  0  0
    2.4421   -1.4284    0.2268 C   0  0  0  0  0  0
   -1.2044   -0.6300   -0.0468 C   0  0  0  0  0  0
   -1.8472   -1.3928   -1.0306 C   0  0  0  0  0  0
   -3.2423   -1.4151   -1.1117 C   0  0  0  0  0  0
   -3.9967   -0.6789   -0.2058 C   0  0  0  0  0  0
   -3.3791    0.0789    0.7826 C   0  0  0  0  0  0
   -1.9833    0.1000    0.8618 C   0  0  0  0  0  0
    0.7440    1.8839   -0.3348 C   0  0  0  0  0  0
    0.9217    2.2730   -1.7964 C   0  0  0  0  0  0
    0.6759   -2.6415    1.5476 C   0  0  0  0  0  0
   -5.3550   -0.7256   -0.3157 O   0  0  0  0  0  0
    0.8676   -2.5987   -0.6156 H   0  0  0  0  0  0
    3.6838    1.7282   -0.1516 H   0  0  0  0  0  0
    5.8000    0.4617    0.0948 H   0  0  0  0  0  0
    5.7696   -1.9973    0.4141 H   0  0  0  0  0  0
    3.6087   -3.2281    0.4968 H   0  0  0  0  0  0
   -1.2698   -1.9703   -1.7507 H   0  0  0  0  0  0
   -3.7305   -2.0070   -1.8825 H   0  0  0  0  0  0
   -3.9612    0.6540    1.4987 H   0  0  0  0  0  0
   -1.5090    0.6859    1.6479 H   0  0  0  0  0  0
    1.3669    2.5265    0.2987 H   0  0  0  0  0  0
   -0.2889    2.1028   -0.0464 H   0  0  0  0  0  0
    0.6561    3.3254   -1.9399 H   0  0  0  0  0  0
    0.2769    1.6714   -2.4460 H   0  0  0  0  0  0
    1.9567    2.1412   -2.1274 H   0  0  0  0  0  0
    1.3023   -3.5289    1.6906 H   0  0  0  0  0  0
   -0.3683   -2.9719    1.5514 H   0  0  0  0  0  0
    0.8255   -1.9897    2.4165 H   0  0  0  0  0  0
   -5.7417   -0.1605    0.3871 H   0  0  0  0  0  0
  1  2  1  0  0  0
  1  9  1  0  0  0
  1 18  1  0  0  0
  1 20  1  0  0  0
  2  3  2  0  0  0
  2 10  1  0  0  0
  3  4  1  0  0  0
  3 16  1  0  0  0
  4  5  2  0  0  0
  4  9  1  0  0  0
  5  6  1  0  0  0
  5 21  1  0  0  0
  6  7  2  0  0  0
  6 22  1  0  0  0
  7  8  1  0  0  0
  7 23  1  0  0  0
  8  9  2  0  0  0
  8 24  1  0  0  0
 10 11  2  0  0  0
 10 15  1  0  0  0
 11 12  1  0  0  0
 11 25  1  0  0  0
 12 13  2  0  0  0
 12 26  1  0  0  0
 13 14  1  0  0  0
 13 19  1  0  0  0
 14 15  2  0  0  0
 14 27  1  0  0  0
 15 28  1  0  0  0
 16 17  1  0  0  0
 16 29  1  0  0  0
 16 30  1  0  0  0
 17 31  1  0  0  0
 17 32  1  0  0  0
 17 33  1  0  0  0
 18 34  1  0  0  0
 18 35  1  0  0  0
 18 36  1  0  0  0
 19 37  1  0  0  0
M  END
>  <Name>
tox-148

>  <substance>
(R )-5-Deoxyindenestrol A

>  <CASRN>
138515-02-3

>  <from_NCI>
0

>  <RBA>
0.900000

>  <method>
MUC

>  <chemical_class>
Stilbene

>  <set>
0

$$$$
tox-151
  Cerius2 12190218263D 1   1.00000                          
 Structure written by MMmdl.
 37 39  0  0  0  0  0  0  0  0999 V2000
    0.7097   -1.9730    0.3250 C   0  0  0  0  0  0
   -0.0575   -0.6649    0.5012 C   0  0  0  0  0  0
    0.7559    0.4021    0.6708 C   0  0  0  0  0  0
    2.1369   -0.0922    0.6353 C   0  0  0  0  0  0
    3.3377    0.5867    0.7840 C   0  0  0  0  0  0
    4.5324   -0.1382    0.7174 C   0  0  0  0  0  0
    4.5084   -1.5217    0.5111 C   0  0  0  0  0  0
    3.3080   -2.2123    0.3672 C   0  0  0  0  0  0
    2.1295   -1.4795    0.4290 C   0  0  0  0  0  0
    5.7057   -2.1752    0.4593 O   0  0  0  0  0  0
   -1.5247   -0.6660    0.5391 C   0  0  0  0  0  0
   -2.2099   -1.4919    1.4399 C   0  0  0  0  0  0
   -3.6070   -1.5088    1.4688 C   0  0  0  0  0  0
   -4.3334   -0.7045    0.5933 C   0  0  0  0  0  0
   -3.6640    0.1153   -0.3124 C   0  0  0  0  0  0
   -2.2671    0.1326   -0.3408 C   0  0  0  0  0  0
    0.4191    1.8341    0.9473 C   0  0  0  0  0  0
    0.6295    2.7342   -0.2632 C   0  0  0  0  0  0
    0.4335   -2.6527   -1.0133 C   0  0  0  0  0  0
    0.5061   -2.6561    1.1580 H   0  0  0  0  0  0
    3.3664    1.6595    0.9517 H   0  0  0  0  0  0
    5.4828    0.3795    0.8304 H   0  0  0  0  0  0
    3.2834   -3.2871    0.2156 H   0  0  0  0  0  0
    5.5311   -3.1293    0.3110 H   0  0  0  0  0  0
   -1.6647   -2.1240    2.1391 H   0  0  0  0  0  0
   -4.1276   -2.1509    2.1771 H   0  0  0  0  0  0
   -5.4217   -0.7185    0.6154 H   0  0  0  0  0  0
   -4.2288    0.7402   -1.0019 H   0  0  0  0  0  0
   -1.7651    0.7680   -1.0678 H   0  0  0  0  0  0
    1.0225    2.2024    1.7859 H   0  0  0  0  0  0
   -0.6223    1.9269    1.2758 H   0  0  0  0  0  0
    0.3425    3.7624   -0.0199 H   0  0  0  0  0  0
    0.0229    2.4085   -1.1141 H   0  0  0  0  0  0
    1.6766    2.7472   -0.5811 H   0  0  0  0  0  0
    1.0615   -3.5416   -1.1392 H   0  0  0  0  0  0
    0.6363   -1.9844   -1.8586 H   0  0  0  0  0  0
   -0.6110   -2.9749   -1.0832 H   0  0  0  0  0  0
  1  2  1  0  0  0
  1  9  1  0  0  0
  1 19  1  0  0  0
  1 20  1  0  0  0
  2  3  2  0  0  0
  2 11  1  0  0  0
  3  4  1  0  0  0
  3 17  1  0  0  0
  4  5  2  0  0  0
  4  9  1  0  0  0
  5  6  1  0  0  0
  5 21  1  0  0  0
  6  7  2  0  0  0
  6 22  1  0  0  0
  7  8  1  0  0  0
  7 10  1  0  0  0
  8  9  2  0  0  0
  8 23  1  0  0  0
 10 24  1  0  0  0
 11 12  2  0  0  0
 11 16  1  0  0  0
 12 13  1  0  0  0
 12 25  1  0  0  0
 13 14  2  0  0  0
 13 26  1  0  0  0
 14 15  1  0  0  0
 14 27  1  0  0  0
 15 16  2  0  0  0
 15 28  1  0  0  0
 16 29  1  0  0  0
 17 18  1  0  0  0
 17 30  1  0  0  0
 17 31  1  0  0  0
 18 32  1  0  0  0
 18 33  1  0  0  0
 18 34  1  0  0  0
 19 35  1  0  0  0
 19 36  1  0  0  0
 19 37  1  0  0  0
M  END
>  <Name>
tox-151

>  <substance>
(S )-4'-Deoxyindenestrol A

>  <CASRN>
138514-99-5

>  <from_NCI>
0

>  <RBA>
1.800000

>  <method>
MUC

>  <chemical_class>
Stilbene

>  <set>
0

$$$$
tox-152
  Cerius2 12190218263D 1   1.00000                          
 Structure written by MMmdl.
 37 39  0  0  0  0  0  0  0  0999 V2000
    1.0077   -1.9866    0.3692 C   0  0  0  0  0  0
    0.2444   -0.6773    0.5546 C   0  0  0  0  0  0
    1.0617    0.3899    0.7034 C   0  0  0  0  0  0
    2.4416   -0.1057    0.6417 C   0  0  0  0  0  0
    3.6457    0.5720    0.7630 C   0  0  0  0  0  0
    4.8380   -0.1539    0.6746 C   0  0  0  0  0  0
    4.8179   -1.5420    0.4733 C   0  0  0  0  0  0
    3.6060   -2.2241    0.3581 C   0  0  0  0  0  0
    2.4290   -1.4928    0.4412 C   0  0  0  0  0  0
   -1.2216   -0.6771    0.6215 C   0  0  0  0  0  0
   -1.8893   -1.4990    1.5397 C   0  0  0  0  0  0
   -3.2859   -1.5143    1.5961 C   0  0  0  0  0  0
   -4.0189   -0.7120    0.7302 C   0  0  0  0  0  0
   -3.3780    0.1051   -0.1936 C   0  0  0  0  0  0
   -1.9807    0.1191   -0.2476 C   0  0  0  0  0  0
    0.7319    1.8234    0.9811 C   0  0  0  0  0  0
    0.9187    2.7188   -0.2367 C   0  0  0  0  0  0
   -5.3791   -0.7539    0.8138 O   0  0  0  0  0  0
    0.7036   -2.6740   -0.9591 C   0  0  0  0  0  0
    0.8212   -2.6649    1.2100 H   0  0  0  0  0  0
    3.6785    1.6454    0.9262 H   0  0  0  0  0  0
    5.7924    0.3629    0.7663 H   0  0  0  0  0  0
    5.7565   -2.0911    0.4107 H   0  0  0  0  0  0
    3.5911   -3.3008    0.2110 H   0  0  0  0  0  0
   -1.3311   -2.1286    2.2307 H   0  0  0  0  0  0
   -3.7916   -2.1525    2.3170 H   0  0  0  0  0  0
   -3.9429    0.7319   -0.8795 H   0  0  0  0  0  0
   -1.4916    0.7506   -0.9868 H   0  0  0  0  0  0
    1.3524    2.1941    1.8060 H   0  0  0  0  0  0
   -0.3027    1.9183    1.3300 H   0  0  0  0  0  0
    0.6378    3.7482    0.0086 H   0  0  0  0  0  0
    0.2948    2.3906   -1.0740 H   0  0  0  0  0  0
    1.9593    2.7295   -0.5757 H   0  0  0  0  0  0
   -5.7491   -0.1389    0.1448 H   0  0  0  0  0  0
    1.3289   -3.5636   -1.0928 H   0  0  0  0  0  0
    0.8886   -2.0105   -1.8123 H   0  0  0  0  0  0
   -0.3421   -2.9964   -1.0051 H   0  0  0  0  0  0
  1  2  1  0  0  0
  1  9  1  0  0  0
  1 19  1  0  0  0
  1 20  1  0  0  0
  2  3  2  0  0  0
  2 10  1  0  0  0
  3  4  1  0  0  0
  3 16  1  0  0  0
  4  5  2  0  0  0
  4  9  1  0  0  0
  5  6  1  0  0  0
  5 21  1  0  0  0
  6  7  2  0  0  0
  6 22  1  0  0  0
  7  8  1  0  0  0
  7 23  1  0  0  0
  8  9  2  0  0  0
  8 24  1  0  0  0
 10 11  2  0  0  0
 10 15  1  0  0  0
 11 12  1  0  0  0
 11 25  1  0  0  0
 12 13  2  0  0  0
 12 26  1  0  0  0
 13 14  1  0  0  0
 13 18  1  0  0  0
 14 15  2  0  0  0
 14 27  1  0  0  0
 15 28  1  0  0  0
 16 17  1  0  0  0
 16 29  1  0  0  0
 16 30  1  0  0  0
 17 31  1  0  0  0
 17 32  1  0  0  0
 17 33  1  0  0  0
 18 34  1  0  0  0
 19 35  1  0  0  0
 19 36  1  0  0  0
 19 37  1  0  0  0
M  END
>  <Name>
tox-152

>  <substance>
(S )-5-Deoxyindenestrol A

>  <CASRN>
138515-01-2

>  <from_NCI>
0

>  <RBA>
5.600000

>  <method>
MUC

>  <chemical_class>
Stilbene

>  <set>
0

$$$$
tox-153
  Cerius2 12190218263D 1   1.00000                          
 Structure written by MMmdl.
 60 63  0  0  0  0  0  0  0  0999 V2000
   -3.3663   -1.6518    0.6342 C   0  0  0  0  0  0
   -3.2474   -0.2739    0.6871 C   0  0  0  0  0  0
   -1.9824    0.2929    0.5065 C   0  0  0  0  0  0
   -2.2575   -2.4636    0.4308 C   0  0  0  0  0  0
   -0.9846   -1.8877    0.2570 C   0  0  0  0  0  0
    0.1620   -2.8324   -0.0269 C   0  0  0  0  0  0
    1.4010   -2.1480   -0.6185 C   0  0  0  0  0  0
    1.7202   -0.9280    0.2613 C   0  0  0  0  0  0
    3.0498   -0.2382   -0.0670 C   0  0  0  0  0  0
    4.3175   -1.0802   -0.1812 C   0  0  0  0  0  0
    5.4723   -0.0777    0.0289 C   0  0  0  0  0  0
    4.8260    1.2739    0.4360 C   0  0  0  0  0  0
    3.4282    0.8392    0.9781 C   0  0  0  0  0  0
    3.5923    0.2848    2.4257 C   0  0  0  0  0  0
    2.3097    1.8969    1.0001 C   0  0  0  0  0  0
    0.9154    1.2726    1.2294 C   0  0  0  0  0  0
    0.5788    0.1412    0.2146 C   0  0  0  0  0  0
   -0.8122   -0.4849    0.3629 C   0  0  0  0  0  0
    5.6287    1.9039    1.4301 O   0  0  0  0  0  0
    1.2206   -1.8379   -2.1079 C   0  0  0  0  0  0
    4.7679    2.1801   -0.7326 C   0  0  0  0  0  0
    4.7310    2.9168   -1.6814 C   0  0  0  0  0  0
   -4.6249   -2.2417    0.8351 O   0  0  0  0  0  0
   -5.4647   -2.5445   -0.2347 C   0  0  0  0  0  0
   -6.5569   -3.0813   -0.0390 O   0  0  0  0  0  0
   -4.9747   -2.1842   -1.6088 C   0  0  0  0  0  0
   -1.9311    1.6911    0.4929 O   0  0  0  0  0  0
   -2.1373    2.2460   -0.7676 C   0  0  0  0  0  0
   -2.3542    1.6366   -1.8105 O   0  0  0  0  0  0
   -2.0436    3.7388   -0.6606 C   0  0  0  0  0  0
   -4.1202    0.3532    0.8435 H   0  0  0  0  0  0
   -2.3800   -3.5449    0.3926 H   0  0  0  0  0  0
   -0.1705   -3.6281   -0.7056 H   0  0  0  0  0  0
    0.4350   -3.3135    0.9217 H   0  0  0  0  0  0
    2.2280   -2.8662   -0.5442 H   0  0  0  0  0  0
    1.7802   -1.3170    1.2865 H   0  0  0  0  0  0
    2.9165    0.2526   -1.0433 H   0  0  0  0  0  0
    4.3934   -1.5709   -1.1570 H   0  0  0  0  0  0
    4.3511   -1.8630    0.5848 H   0  0  0  0  0  0
    6.0725    0.0086   -0.8850 H   0  0  0  0  0  0
    6.1474   -0.4507    0.8089 H   0  0  0  0  0  0
    3.8629    1.0918    3.1168 H   0  0  0  0  0  0
    4.3754   -0.4761    2.4986 H   0  0  0  0  0  0
    2.6785   -0.1658    2.8200 H   0  0  0  0  0  0
    2.2694    2.4396    0.0484 H   0  0  0  0  0  0
    2.5071    2.6482    1.7743 H   0  0  0  0  0  0
    0.2030    2.0970    1.1639 H   0  0  0  0  0  0
    0.8287    0.8893    2.2527 H   0  0  0  0  0  0
    0.5838    0.5998   -0.7848 H   0  0  0  0  0  0
    5.1628    2.7317    1.6654 H   0  0  0  0  0  0
    2.1213   -1.3816   -2.5292 H   0  0  0  0  0  0
    0.3787   -1.1665   -2.2997 H   0  0  0  0  0  0
    1.0342   -2.7618   -2.6667 H   0  0  0  0  0  0
    4.6988    3.5711   -2.5239 H   0  0  0  0  0  0
   -4.8119   -1.1073   -1.6913 H   0  0  0  0  0  0
   -5.7451   -2.4565   -2.3377 H   0  0  0  0  0  0
   -4.0724   -2.7470   -1.8572 H   0  0  0  0  0  0
   -2.2423    4.1845   -1.6394 H   0  0  0  0  0  0
   -1.0377    4.0245   -0.3434 H   0  0  0  0  0  0
   -2.7909    4.1077    0.0464 H   0  0  0  0  0  0
  1  2  2  0  0  0
  1  4  1  0  0  0
  1 23  1  0  0  0
  2  3  1  0  0  0
  2 31  1  0  0  0
  3 18  2  0  0  0
  3 27  1  0  0  0
  4  5  2  0  0  0
  4 32  1  0  0  0
  5  6  1  0  0  0
  5 18  1  0  0  0
  6  7  1  0  0  0
  6 33  1  0  0  0
  6 34  1  0  0  0
  7  8  1  0  0  0
  7 20  1  0  0  0
  7 35  1  0  0  0
  8  9  1  0  0  0
  8 17  1  0  0  0
  8 36  1  0  0  0
  9 10  1  0  0  0
  9 13  1  0  0  0
  9 37  1  0  0  0
 10 11  1  0  0  0
 10 38  1  0  0  0
 10 39  1  0  0  0
 11 12  1  0  0  0
 11 40  1  0  0  0
 11 41  1  0  0  0
 12 13  1  0  0  0
 12 19  1  0  0  0
 12 21  1  0  0  0
 13 14  1  0  0  0
 13 15  1  0  0  0
 14 42  1  0  0  0
 14 43  1  0  0  0
 14 44  1  0  0  0
 15 16  1  0  0  0
 15 45  1  0  0  0
 15 46  1  0  0  0
 16 17  1  0  0  0
 16 47  1  0  0  0
 16 48  1  0  0  0
 17 18  1  0  0  0
 17 49  1  0  0  0
 19 50  1  0  0  0
 20 51  1  0  0  0
 20 52  1  0  0  0
 20 53  1  0  0  0
 21 22  3  0  0  0
 22 54  1  0  0  0
 23 24  1  0  0  0
 24 25  2  0  0  0
 24 26  1  0  0  0
 26 55  1  0  0  0
 26 56  1  0  0  0
 26 57  1  0  0  0
 27 28  1  0  0  0
 28 29  2  0  0  0
 28 30  1  0  0  0
 30 58  1  0  0  0
 30 59  1  0  0  0
 30 60  1  0  0  0
M  END
>  <Name>
tox-153

>  <substance>
1,3-Diacetoxy-17a-ethinyl-7a-methyl-1,3,5(10)-estratrien-17b-ol

>  <CASRN>


>  <from_NCI>
0

>  <RBA>
20.000000

>  <method>
RUC

>  <chemical_class>
Steroid, nonphenolic

>  <set>
2

$$$$
tox-154
  Cerius2 12190218263D 1   1.00000                          
 Structure written by MMmdl.
 74 79  0  0  0  0  0  0  0  0999 V2000
   -1.3681   -3.2046   -0.2494 C   0  0  0  0  0  0
   -1.2071   -1.8307   -0.2989 C   0  0  0  0  0  0
    0.0877   -1.2972   -0.2545 C   0  0  0  0  0  0
   -0.2670   -4.0505   -0.2456 C   0  0  0  0  0  0
    1.0364   -3.5163   -0.2491 C   0  0  0  0  0  0
    2.1751   -4.5103   -0.3104 C   0  0  0  0  0  0
    3.5067   -3.9052   -0.7678 C   0  0  0  0  0  0
    3.7485   -2.6363    0.0659 C   0  0  0  0  0  0
    5.1402   -2.0195   -0.1193 C   0  0  0  0  0  0
    6.3709   -2.9133    0.0085 C   0  0  0  0  0  0
    7.5308   -1.9424    0.3150 C   0  0  0  0  0  0
    6.8989   -0.5405    0.5240 C   0  0  0  0  0  0
    5.4193   -0.8795    0.8882 C   0  0  0  0  0  0
    5.3487   -1.3224    2.3807 C   0  0  0  0  0  0
    4.3618    0.2151    0.6673 C   0  0  0  0  0  0
    2.9206   -0.3350    0.7407 C   0  0  0  0  0  0
    2.6661   -1.5395   -0.2107 C   0  0  0  0  0  0
    1.2413   -2.1130   -0.1960 C   0  0  0  0  0  0
    7.5815    0.1365    1.5753 O   0  0  0  0  0  0
    3.5427   -3.6965   -2.2852 C   0  0  0  0  0  0
    7.0511    0.2713   -0.7039 C   0  0  0  0  0  0
    7.1845    0.9308   -1.6997 C   0  0  0  0  0  0
   -2.6540   -3.7397   -0.3271 O   0  0  0  0  0  0
   -3.1817   -4.1003    0.8997 C   0  0  0  0  0  0
   -4.5484   -4.6683    0.7136 C   0  0  0  0  0  0
   -5.1899   -4.7009   -0.5332 C   0  0  0  0  0  0
   -6.4736   -5.2416   -0.6498 C   0  0  0  0  0  0
   -7.1234   -5.7516    0.4730 C   0  0  0  0  0  0
   -6.4938   -5.7233    1.7159 C   0  0  0  0  0  0
   -5.2113   -5.1831    1.8375 C   0  0  0  0  0  0
   -2.6387   -3.9902    1.9924 O   0  0  0  0  0  0
    0.2199    0.0922   -0.4410 O   0  0  0  0  0  0
   -0.3835    0.9168    0.4978 C   0  0  0  0  0  0
   -0.2205    2.3440    0.0968 C   0  0  0  0  0  0
   -0.7321    3.3340    0.9484 C   0  0  0  0  0  0
   -0.6038    4.6851    0.6187 C   0  0  0  0  0  0
    0.0352    5.0568   -0.5627 C   0  0  0  0  0  0
    0.5463    4.0802   -1.4163 C   0  0  0  0  0  0
    0.4206    2.7271   -1.0905 C   0  0  0  0  0  0
   -0.9547    0.5607    1.5206 O   0  0  0  0  0  0
   -2.0755   -1.1839   -0.3868 H   0  0  0  0  0  0
   -0.4172   -5.1287   -0.2660 H   0  0  0  0  0  0
    1.9097   -5.3424   -0.9750 H   0  0  0  0  0  0
    2.2978   -4.9321    0.6960 H   0  0  0  0  0  0
    4.2876   -4.6400   -0.5327 H   0  0  0  0  0  0
    3.6511   -2.9521    1.1133 H   0  0  0  0  0  0
    5.1659   -1.6008   -1.1371 H   0  0  0  0  0  0
    6.5610   -3.4768   -0.9109 H   0  0  0  0  0  0
    6.2593   -3.6386    0.8223 H   0  0  0  0  0  0
    8.2604   -1.9508   -0.5037 H   0  0  0  0  0  0
    8.0669   -2.2788    1.2107 H   0  0  0  0  0  0
    5.5600   -0.4742    3.0425 H   0  0  0  0  0  0
    6.0735   -2.1061    2.6215 H   0  0  0  0  0  0
    4.3662   -1.7023    2.6705 H   0  0  0  0  0  0
    4.4819    0.6768   -0.3198 H   0  0  0  0  0  0
    4.4842    1.0217    1.4002 H   0  0  0  0  0  0
    2.2770    0.5081    0.4914 H   0  0  0  0  0  0
    2.6654   -0.6132    1.7698 H   0  0  0  0  0  0
    2.8145   -1.1670   -1.2348 H   0  0  0  0  0  0
    7.1276    0.9974    1.6784 H   0  0  0  0  0  0
    4.5057   -3.2891   -2.6072 H   0  0  0  0  0  0
    2.7548   -3.0241   -2.6363 H   0  0  0  0  0  0
    3.4077   -4.6533   -2.8018 H   0  0  0  0  0  0
    7.3029    1.5164   -2.5839 H   0  0  0  0  0  0
   -4.7112   -4.3086   -1.4279 H   0  0  0  0  0  0
   -6.9674   -5.2635   -1.6202 H   0  0  0  0  0  0
   -8.1236   -6.1718    0.3788 H   0  0  0  0  0  0
   -7.0015   -6.1218    2.5927 H   0  0  0  0  0  0
   -4.7350   -5.1692    2.8165 H   0  0  0  0  0  0
   -1.2342    3.0624    1.8756 H   0  0  0  0  0  0
   -1.0033    5.4481    1.2848 H   0  0  0  0  0  0
    0.1350    6.1101   -0.8195 H   0  0  0  0  0  0
    1.0446    4.3725   -2.3394 H   0  0  0  0  0  0
    0.8300    1.9898   -1.7779 H   0  0  0  0  0  0
  1  2  2  0  0  0
  1  4  1  0  0  0
  1 23  1  0  0  0
  2  3  1  0  0  0
  2 41  1  0  0  0
  3 18  2  0  0  0
  3 32  1  0  0  0
  4  5  2  0  0  0
  4 42  1  0  0  0
  5  6  1  0  0  0
  5 18  1  0  0  0
  6  7  1  0  0  0
  6 43  1  0  0  0
  6 44  1  0  0  0
  7  8  1  0  0  0
  7 20  1  0  0  0
  7 45  1  0  0  0
  8  9  1  0  0  0
  8 17  1  0  0  0
  8 46  1  0  0  0
  9 10  1  0  0  0
  9 13  1  0  0  0
  9 47  1  0  0  0
 10 11  1  0  0  0
 10 48  1  0  0  0
 10 49  1  0  0  0
 11 12  1  0  0  0
 11 50  1  0  0  0
 11 51  1  0  0  0
 12 13  1  0  0  0
 12 19  1  0  0  0
 12 21  1  0  0  0
 13 14  1  0  0  0
 13 15  1  0  0  0
 14 52  1  0  0  0
 14 53  1  0  0  0
 14 54  1  0  0  0
 15 16  1  0  0  0
 15 55  1  0  0  0
 15 56  1  0  0  0
 16 17  1  0  0  0
 16 57  1  0  0  0
 16 58  1  0  0  0
 17 18  1  0  0  0
 17 59  1  0  0  0
 19 60  1  0  0  0
 20 61  1  0  0  0
 20 62  1  0  0  0
 20 63  1  0  0  0
 21 22  3  0  0  0
 22 64  1  0  0  0
 23 24  1  0  0  0
 24 25  1  0  0  0
 24 31  2  0  0  0
 25 26  2  0  0  0
 25 30  1  0  0  0
 26 27  1  0  0  0
 26 65  1  0  0  0
 27 28  2  0  0  0
 27 66  1  0  0  0
 28 29  1  0  0  0
 28 67  1  0  0  0
 29 30  2  0  0  0
 29 68  1  0  0  0
 30 69  1  0  0  0
 32 33  1  0  0  0
 33 34  1  0  0  0
 33 40  2  0  0  0
 34 35  2  0  0  0
 34 39  1  0  0  0
 35 36  1  0  0  0
 35 70  1  0  0  0
 36 37  2  0  0  0
 36 71  1  0  0  0
 37 38  1  0  0  0
 37 72  1  0  0  0
 38 39  2  0  0  0
 38 73  1  0  0  0
 39 74  1  0  0  0
M  END
>  <Name>
tox-154

>  <substance>
1,3-Dibenzoyloxy-17a-ethinyl-7a- methyl-1,3,5(10)-estratrien-17b-ol

>  <CASRN>


>  <from_NCI>
0

>  <RBA>
7.300000

>  <method>
RUC

>  <chemical_class>
Steroid, nonphenolic

>  <set>
0

$$$$
tox-155
  Cerius2 12190218263D 1   1.00000                          
 Structure written by MMmdl.
 47 48  0  0  0  0  0  0  0  0999 V2000
   -1.4672   -0.6599   -0.3003 Si  0  0  0  0  0  0
   -0.0625   -0.1103    0.4579 O   0  0  0  0  0  0
    1.6124   -0.1199    0.2467 Si  0  0  0  0  0  0
    2.4538    0.4923    1.8561 C   0  0  0  0  0  0
    3.9634    0.5754    1.8344 C   0  0  0  0  0  0
    4.6064    1.7530    1.4264 C   0  0  0  0  0  0
    6.0002    1.8257    1.3968 C   0  0  0  0  0  0
    6.7652    0.7241    1.7750 C   0  0  0  0  0  0
    6.1375   -0.4509    2.1840 C   0  0  0  0  0  0
    4.7439   -0.5259    2.2142 C   0  0  0  0  0  0
   -2.9915    0.1422    0.5399 C   0  0  0  0  0  0
   -4.3451   -0.2640    0.0024 C   0  0  0  0  0  0
   -5.0249   -1.3656    0.5420 C   0  0  0  0  0  0
   -6.2697   -1.7465    0.0380 C   0  0  0  0  0  0
   -6.8483   -1.0310   -1.0085 C   0  0  0  0  0  0
   -6.1832    0.0666   -1.5515 C   0  0  0  0  0  0
   -4.9382    0.4494   -1.0492 C   0  0  0  0  0  0
   -1.6005   -2.5305   -0.1456 C   0  0  0  0  0  0
   -1.4633   -0.2007   -2.1243 C   0  0  0  0  0  0
    2.0963    1.0240   -1.1668 C   0  0  0  0  0  0
    2.2255   -1.8555   -0.1406 C   0  0  0  0  0  0
    2.1393   -0.1690    2.6731 H   0  0  0  0  0  0
    2.0408    1.4799    2.0965 H   0  0  0  0  0  0
    4.0243    2.6240    1.1268 H   0  0  0  0  0  0
    6.4897    2.7442    1.0775 H   0  0  0  0  0  0
    7.8520    0.7816    1.7516 H   0  0  0  0  0  0
    6.7344   -1.3118    2.4801 H   0  0  0  0  0  0
    4.2703   -1.4528    2.5363 H   0  0  0  0  0  0
   -2.8837    1.2314    0.4639 H   0  0  0  0  0  0
   -2.9443   -0.0877    1.6117 H   0  0  0  0  0  0
   -4.5874   -1.9370    1.3601 H   0  0  0  0  0  0
   -6.7887   -2.6038    0.4633 H   0  0  0  0  0  0
   -7.8189   -1.3288   -1.4010 H   0  0  0  0  0  0
   -6.6347    0.6265   -2.3687 H   0  0  0  0  0  0
   -4.4326    1.3099   -1.4863 H   0  0  0  0  0  0
   -2.4994   -2.8987   -0.6483 H   0  0  0  0  0  0
   -1.6475   -2.8257    0.9067 H   0  0  0  0  0  0
   -0.7339   -3.0181   -0.6011 H   0  0  0  0  0  0
   -2.3699   -0.5627   -2.6177 H   0  0  0  0  0  0
   -0.6021   -0.6449   -2.6317 H   0  0  0  0  0  0
   -1.4137    0.8852   -2.2471 H   0  0  0  0  0  0
    3.1789    1.0126   -1.3224 H   0  0  0  0  0  0
    1.7890    2.0514   -0.9509 H   0  0  0  0  0  0
    1.6170    0.7103   -2.0985 H   0  0  0  0  0  0
    3.3096   -1.8610   -0.2853 H   0  0  0  0  0  0
    1.7605   -2.2331   -1.0559 H   0  0  0  0  0  0
    1.9830   -2.5403    0.6773 H   0  0  0  0  0  0
  1  2  1  0  0  0
  1 11  1  0  0  0
  1 18  1  0  0  0
  1 19  1  0  0  0
  2  3  1  0  0  0
  3  4  1  0  0  0
  3 20  1  0  0  0
  3 21  1  0  0  0
  4  5  1  0  0  0
  4 22  1  0  0  0
  4 23  1  0  0  0
  5  6  2  0  0  0
  5 10  1  0  0  0
  6  7  1  0  0  0
  6 24  1  0  0  0
  7  8  2  0  0  0
  7 25  1  0  0  0
  8  9  1  0  0  0
  8 26  1  0  0  0
  9 10  2  0  0  0
  9 27  1  0  0  0
 10 28  1  0  0  0
 11 12  1  0  0  0
 11 29  1  0  0  0
 11 30  1  0  0  0
 12 13  2  0  0  0
 12 17  1  0  0  0
 13 14  1  0  0  0
 13 31  1  0  0  0
 14 15  2  0  0  0
 14 32  1  0  0  0
 15 16  1  0  0  0
 15 33  1  0  0  0
 16 17  2  0  0  0
 16 34  1  0  0  0
 17 35  1  0  0  0
 18 36  1  0  0  0
 18 37  1  0  0  0
 18 38  1  0  0  0
 19 39  1  0  0  0
 19 40  1  0  0  0
 19 41  1  0  0  0
 20 42  1  0  0  0
 20 43  1  0  0  0
 20 44  1  0  0  0
 21 45  1  0  0  0
 21 46  1  0  0  0
 21 47  1  0  0  0
M  END
>  <Name>
tox-155

>  <substance>
1,3-Dibenzyltetramethyldisiloxane

>  <CASRN>


>  <from_NCI>
0

>  <RBA>
0.000000

>  <method>
RUC

>  <chemical_class>
Siloxane

>  <set>
1

$$$$
tox-156
  Cerius2 12190218263D 1   1.00000                          
 Structure written by MMmdl.
 42 45  0  0  0  0  0  0  0  0999 V2000
   -5.4181   -4.2934   16.7082 C   0  0  0  0  0  0
   -4.7127   -4.1139   17.8608 O   0  0  0  0  0  0
   -6.8012   -4.3106   16.7847 C   0  0  0  0  0  0
   -7.5563   -4.4871   15.6226 C   0  0  0  0  0  0
   -4.7779   -4.4636   15.4875 C   0  0  0  0  0  0
   -5.5297   -4.6535   14.3129 C   0  0  0  0  0  0
   -4.7773   -4.8295   13.0159 C   0  0  0  0  0  0
   -5.6338   -5.3816   11.8814 C   0  0  0  0  0  0
   -6.9555   -4.6120   11.8076 C   0  0  0  0  0  0
   -7.8006   -4.9202   10.5967 C   0  0  0  0  0  0
   -7.5500   -5.7170    9.5488 C   0  0  0  0  0  0
   -8.6760   -5.7243    8.5665 C   0  0  0  0  0  0
   -9.8346   -5.0900    9.3498 C   0  0  0  0  0  0
  -10.6572   -4.3209    8.4734 O   0  0  0  0  0  0
   -9.1584   -4.2536   10.4802 C   0  0  0  0  0  0
   -8.9984   -2.7711   10.0971 C   0  0  0  0  0  0
   -9.9265   -4.3970   11.8083 C   0  0  0  0  0  0
   -9.0865   -4.0383   13.0435 C   0  0  0  0  0  0
   -7.7751   -4.8623   13.1050 C   0  0  0  0  0  0
   -6.9405   -4.6325   14.3656 C   0  0  0  0  0  0
   -3.7560   -4.1263   17.6435 H   0  0  0  0  0  0
   -7.3019   -4.1926   17.7431 H   0  0  0  0  0  0
   -8.6389   -4.5191   15.7267 H   0  0  0  0  0  0
   -3.6905   -4.4565   15.4333 H   0  0  0  0  0  0
   -3.9254   -5.5032   13.1691 H   0  0  0  0  0  0
   -4.3750   -3.8513   12.7229 H   0  0  0  0  0  0
   -5.8260   -6.4505   12.0439 H   0  0  0  0  0  0
   -5.0692   -5.2941   10.9455 H   0  0  0  0  0  0
   -6.7031   -3.5426   11.7537 H   0  0  0  0  0  0
   -6.6442   -6.2885    9.3922 H   0  0  0  0  0  0
   -8.9310   -6.7454    8.2650 H   0  0  0  0  0  0
   -8.4164   -5.1560    7.6672 H   0  0  0  0  0  0
  -10.4575   -5.8938    9.7634 H   0  0  0  0  0  0
  -10.9592   -4.9385    7.7745 H   0  0  0  0  0  0
   -9.9736   -2.2811   10.0004 H   0  0  0  0  0  0
   -8.4731   -2.6590    9.1413 H   0  0  0  0  0  0
   -8.4294   -2.2105   10.8461 H   0  0  0  0  0  0
  -10.2687   -5.4333   11.9348 H   0  0  0  0  0  0
  -10.8326   -3.7788   11.7896 H   0  0  0  0  0  0
   -9.7119   -4.2292   13.9217 H   0  0  0  0  0  0
   -8.8590   -2.9653   13.0524 H   0  0  0  0  0  0
   -8.0556   -5.9267   13.1328 H   0  0  0  0  0  0
  1  2  1  0  0  0
  1  3  2  0  0  0
  1  5  1  0  0  0
  2 21  1  0  0  0
  3  4  1  0  0  0
  3 22  1  0  0  0
  4 20  2  0  0  0
  4 23  1  0  0  0
  5  6  2  0  0  0
  5 24  1  0  0  0
  6  7  1  0  0  0
  6 20  1  0  0  0
  7  8  1  0  0  0
  7 25  1  0  0  0
  7 26  1  0  0  0
  8  9  1  0  0  0
  8 27  1  0  0  0
  8 28  1  0  0  0
  9 10  1  0  0  0
  9 19  1  0  0  0
  9 29  1  0  0  0
 10 11  2  0  0  0
 10 15  1  0  0  0
 11 12  1  0  0  0
 11 30  1  0  0  0
 12 13  1  0  0  0
 12 31  1  0  0  0
 12 32  1  0  0  0
 13 14  1  0  0  0
 13 15  1  0  0  0
 13 33  1  0  0  0
 14 34  1  0  0  0
 15 16  1  0  0  0
 15 17  1  0  0  0
 16 35  1  0  0  0
 16 36  1  0  0  0
 16 37  1  0  0  0
 17 18  1  0  0  0
 17 38  1  0  0  0
 17 39  1  0  0  0
 18 19  1  0  0  0
 18 40  1  0  0  0
 18 41  1  0  0  0
 19 20  1  0  0  0
 19 42  1  0  0  0
M  END
>  <Name>
tox-156

>  <substance>
14-Dehydroestradiol-17b

>  <CASRN>
58699-19-7

>  <from_NCI>
0

>  <RBA>
107.000000

>  <method>
RUC

>  <chemical_class>
Steroid, phenolic

>  <set>
1

$$$$
tox-157
  Cerius2 12190218263D 1   1.00000                          
 Structure written by MMmdl.
 45 48  0  0  0  0  0  0  0  0999 V2000
   -3.3629   -1.7522   -0.7184 C   0  0  0  0  0  0
   -4.5349   -2.4537   -0.7732 O   0  0  0  0  0  0
   -3.4612   -0.4890   -0.1424 C   0  0  0  0  0  0
   -2.3344    0.3296   -0.0198 C   0  0  0  0  0  0
   -2.1235   -2.1842   -1.1845 C   0  0  0  0  0  0
   -0.9813   -1.3633   -1.0768 C   0  0  0  0  0  0
    0.3263   -1.9066   -1.6026 C   0  0  0  0  0  0
    1.4064   -0.8442   -1.7763 C   0  0  0  0  0  0
    1.4819    0.0291   -0.5208 C   0  0  0  0  0  0
    2.6499    0.9829   -0.4828 C   0  0  0  0  0  0
    3.6625    1.1432   -1.3458 C   0  0  0  0  0  0
    4.6093    2.2134   -0.9088 C   0  0  0  0  0  0
    3.8251    2.9570    0.1823 C   0  0  0  0  0  0
    4.7147    3.4212    1.1969 O   0  0  0  0  0  0
    2.7605    1.9366    0.6920 C   0  0  0  0  0  0
    3.2249    1.1850    1.9528 C   0  0  0  0  0  0
    1.4047    2.6276    0.9339 C   0  0  0  0  0  0
    0.2153    1.6552    0.9454 C   0  0  0  0  0  0
    0.1497    0.8134   -0.3543 C   0  0  0  0  0  0
   -1.0713   -0.1006   -0.4565 C   0  0  0  0  0  0
   -4.4788   -3.7549   -1.3558 C   0  0  0  0  0  0
   -4.4236   -0.1258    0.2147 H   0  0  0  0  0  0
   -2.4751    1.3162    0.4167 H   0  0  0  0  0  0
   -2.0086   -3.1622   -1.6468 H   0  0  0  0  0  0
    0.1624   -2.3978   -2.5695 H   0  0  0  0  0  0
    0.6808   -2.6718   -0.9004 H   0  0  0  0  0  0
    1.1840   -0.2254   -2.6558 H   0  0  0  0  0  0
    2.3612   -1.3476   -1.9693 H   0  0  0  0  0  0
    1.5988   -0.6492    0.3374 H   0  0  0  0  0  0
    3.8161    0.5719   -2.2522 H   0  0  0  0  0  0
    4.8507    2.8895   -1.7353 H   0  0  0  0  0  0
    5.5437    1.7824   -0.5343 H   0  0  0  0  0  0
    3.3519    3.8392   -0.2680 H   0  0  0  0  0  0
    4.1617    3.9220    1.8328 H   0  0  0  0  0  0
    3.3174    1.8659    2.8062 H   0  0  0  0  0  0
    4.2008    0.7097    1.7988 H   0  0  0  0  0  0
    2.5238    0.3962    2.2447 H   0  0  0  0  0  0
    1.2140    3.3684    0.1454 H   0  0  0  0  0  0
    1.4286    3.1878    1.8768 H   0  0  0  0  0  0
   -0.6899    2.2587    1.0686 H   0  0  0  0  0  0
    0.2695    0.9956    1.8202 H   0  0  0  0  0  0
    0.0581    1.5156   -1.1974 H   0  0  0  0  0  0
   -5.4867   -4.1791   -1.3194 H   0  0  0  0  0  0
   -3.8179   -4.4141   -0.7835 H   0  0  0  0  0  0
   -4.1763   -3.7022   -2.4068 H   0  0  0  0  0  0
  1  2  1  0  0  0
  1  3  2  0  0  0
  1  5  1  0  0  0
  2 21  1  0  0  0
  3  4  1  0  0  0
  3 22  1  0  0  0
  4 20  2  0  0  0
  4 23  1  0  0  0
  5  6  2  0  0  0
  5 24  1  0  0  0
  6  7  1  0  0  0
  6 20  1  0  0  0
  7  8  1  0  0  0
  7 25  1  0  0  0
  7 26  1  0  0  0
  8  9  1  0  0  0
  8 27  1  0  0  0
  8 28  1  0  0  0
  9 10  1  0  0  0
  9 19  1  0  0  0
  9 29  1  0  0  0
 10 11  2  0  0  0
 10 15  1  0  0  0
 11 12  1  0  0  0
 11 30  1  0  0  0
 12 13  1  0  0  0
 12 31  1  0  0  0
 12 32  1  0  0  0
 13 14  1  0  0  0
 13 15  1  0  0  0
 13 33  1  0  0  0
 14 34  1  0  0  0
 15 16  1  0  0  0
 15 17  1  0  0  0
 16 35  1  0  0  0
 16 36  1  0  0  0
 16 37  1  0  0  0
 17 18  1  0  0  0
 17 38  1  0  0  0
 17 39  1  0  0  0
 18 19  1  0  0  0
 18 40  1  0  0  0
 18 41  1  0  0  0
 19 20  1  0  0  0
 19 42  1  0  0  0
 21 43  1  0  0  0
 21 44  1  0  0  0
 21 45  1  0  0  0
M  END
>  <Name>
tox-157

>  <substance>
14-Dehydroestradiol-17b 3-methyl ether

>  <CASRN>
35664-58-7

>  <from_NCI>
0

>  <RBA>
0.800000

>  <method>
RUC

>  <chemical_class>
Steroid, nonphenolic

>  <set>
0

$$$$
tox-158
  Cerius2 12190218263D 1   1.00000                          
 Structure written by MMmdl.
 40 43  0  0  0  0  0  0  0  0999 V2000
   -5.4493   -4.2988   16.6904 C   0  0  0  0  0  0
   -4.7597   -4.1090   17.8500 O   0  0  0  0  0  0
   -6.8315   -4.3190   16.7530 C   0  0  0  0  0  0
   -7.5730   -4.5023   15.5849 C   0  0  0  0  0  0
   -4.7941   -4.4742   15.4783 C   0  0  0  0  0  0
   -5.5311   -4.6664   14.2961 C   0  0  0  0  0  0
   -4.7614   -4.8345   13.0092 C   0  0  0  0  0  0
   -5.6061   -5.3421   11.8461 C   0  0  0  0  0  0
   -6.9270   -4.5705   11.7861 C   0  0  0  0  0  0
   -7.7670   -4.8496   10.5660 C   0  0  0  0  0  0
   -7.5630   -5.7136    9.5622 C   0  0  0  0  0  0
   -8.7004   -5.7894    8.5971 C   0  0  0  0  0  0
   -9.6818   -4.8553    9.2670 C   0  0  0  0  0  0
  -10.8301   -4.6870    8.8649 O   0  0  0  0  0  0
   -9.0912   -4.1291   10.4698 C   0  0  0  0  0  0
   -8.9390   -2.6444   10.1372 C   0  0  0  0  0  0
   -9.9026   -4.3812   11.7408 C   0  0  0  0  0  0
   -9.1003   -4.0970   13.0196 C   0  0  0  0  0  0
   -7.7601   -4.8765   13.0653 C   0  0  0  0  0  0
   -6.9426   -4.6501   14.3355 C   0  0  0  0  0  0
   -3.8115   -4.1112   17.6427 H   0  0  0  0  0  0
   -7.3357   -4.1956   17.7069 H   0  0  0  0  0  0
   -8.6547   -4.5332   15.6788 H   0  0  0  0  0  0
   -3.7087   -4.4658   15.4356 H   0  0  0  0  0  0
   -3.9279   -5.5304   13.1643 H   0  0  0  0  0  0
   -4.3317   -3.8604   12.7435 H   0  0  0  0  0  0
   -5.7989   -6.4162   11.9691 H   0  0  0  0  0  0
   -5.0336   -5.2221   10.9182 H   0  0  0  0  0  0
   -6.6786   -3.4991   11.7678 H   0  0  0  0  0  0
   -6.6922   -6.3480    9.4582 H   0  0  0  0  0  0
   -9.1131   -6.7989    8.5454 H   0  0  0  0  0  0
   -8.4188   -5.4102    7.6127 H   0  0  0  0  0  0
   -9.9194   -2.1782    9.9858 H   0  0  0  0  0  0
   -8.3689   -2.4969    9.2121 H   0  0  0  0  0  0
   -8.4276   -2.0926   10.9327 H   0  0  0  0  0  0
  -10.2447   -5.4253   11.7703 H   0  0  0  0  0  0
  -10.8138   -3.7699   11.7386 H   0  0  0  0  0  0
   -9.7393   -4.3699   13.8661 H   0  0  0  0  0  0
   -8.9082   -3.0206   13.1096 H   0  0  0  0  0  0
   -8.0092   -5.9490   13.0639 H   0  0  0  0  0  0
  1  2  1  0  0  0
  1  3  2  0  0  0
  1  5  1  0  0  0
  2 21  1  0  0  0
  3  4  1  0  0  0
  3 22  1  0  0  0
  4 20  2  0  0  0
  4 23  1  0  0  0
  5  6  2  0  0  0
  5 24  1  0  0  0
  6  7  1  0  0  0
  6 20  1  0  0  0
  7  8  1  0  0  0
  7 25  1  0  0  0
  7 26  1  0  0  0
  8  9  1  0  0  0
  8 27  1  0  0  0
  8 28  1  0  0  0
  9 10  1  0  0  0
  9 19  1  0  0  0
  9 29  1  0  0  0
 10 11  2  0  0  0
 10 15  1  0  0  0
 11 12  1  0  0  0
 11 30  1  0  0  0
 12 13  1  0  0  0
 12 31  1  0  0  0
 12 32  1  0  0  0
 13 14  2  0  0  0
 13 15  1  0  0  0
 15 16  1  0  0  0
 15 17  1  0  0  0
 16 33  1  0  0  0
 16 34  1  0  0  0
 16 35  1  0  0  0
 17 18  1  0  0  0
 17 36  1  0  0  0
 17 37  1  0  0  0
 18 19  1  0  0  0
 18 38  1  0  0  0
 18 39  1  0  0  0
 19 20  1  0  0  0
 19 40  1  0  0  0
M  END
>  <Name>
tox-158

>  <substance>
14-Dehydroestrone

>  <CASRN>
2119-18-8

>  <from_NCI>
0

>  <RBA>
9.000000

>  <method>
RUC

>  <chemical_class>
Steroid, phenolic

>  <set>
2

$$$$
tox-159
  Cerius2 12190218263D 1   1.00000                          
 Structure written by MMmdl.
 43 46  0  0  0  0  0  0  0  0999 V2000
   -3.3390   -1.7311   -0.6800 C   0  0  0  0  0  0
   -4.5166   -2.4241   -0.7246 O   0  0  0  0  0  0
   -3.4276   -0.4580   -0.1243 C   0  0  0  0  0  0
   -2.2945    0.3536   -0.0138 C   0  0  0  0  0  0
   -2.1027   -2.1808   -1.1376 C   0  0  0  0  0  0
   -0.9539   -1.3676   -1.0421 C   0  0  0  0  0  0
    0.3503   -1.9320   -1.5555 C   0  0  0  0  0  0
    1.4418   -0.8831   -1.7395 C   0  0  0  0  0  0
    1.5181    0.0061   -0.4957 C   0  0  0  0  0  0
    2.6837    0.9626   -0.4665 C   0  0  0  0  0  0
    3.6164    1.2068   -1.3971 C   0  0  0  0  0  0
    4.5357    2.3302   -1.0458 C   0  0  0  0  0  0
    3.9249    2.7817    0.2634 C   0  0  0  0  0  0
    4.3177    3.7741    0.8807 O   0  0  0  0  0  0
    2.7980    1.8643    0.7412 C   0  0  0  0  0  0
    3.2508    1.1144    1.9955 C   0  0  0  0  0  0
    1.4819    2.6207    0.9358 C   0  0  0  0  0  0
    0.2537    1.6951    0.9185 C   0  0  0  0  0  0
    0.1937    0.8118   -0.3556 C   0  0  0  0  0  0
   -1.0349   -0.0934   -0.4434 C   0  0  0  0  0  0
   -4.4699   -3.7357   -1.2842 C   0  0  0  0  0  0
   -4.3874   -0.0817    0.2264 H   0  0  0  0  0  0
   -2.4273    1.3475    0.4083 H   0  0  0  0  0  0
   -1.9953   -3.1673   -1.5833 H   0  0  0  0  0  0
    0.1848   -2.4349   -2.5160 H   0  0  0  0  0  0
    0.6944   -2.6909   -0.8412 H   0  0  0  0  0  0
    1.2277   -0.2759   -2.6290 H   0  0  0  0  0  0
    2.3949   -1.3947   -1.9200 H   0  0  0  0  0  0
    1.6247   -0.6599    0.3731 H   0  0  0  0  0  0
    3.6957    0.6934   -2.3475 H   0  0  0  0  0  0
    4.4839    3.1334   -1.7837 H   0  0  0  0  0  0
    5.5584    1.9804   -0.8923 H   0  0  0  0  0  0
    3.4174    1.8114    2.8250 H   0  0  0  0  0  0
    4.1969    0.5860    1.8271 H   0  0  0  0  0  0
    2.5130    0.3761    2.3251 H   0  0  0  0  0  0
    1.3606    3.3743    0.1451 H   0  0  0  0  0  0
    1.5019    3.1809    1.8791 H   0  0  0  0  0  0
   -0.6320    2.3352    0.9913 H   0  0  0  0  0  0
    0.2522    1.0591    1.8126 H   0  0  0  0  0  0
    0.1155    1.4921   -1.2180 H   0  0  0  0  0  0
   -5.4813   -4.1513   -1.2417 H   0  0  0  0  0  0
   -3.8151   -4.3899   -0.6993 H   0  0  0  0  0  0
   -4.1657   -3.7040   -2.3355 H   0  0  0  0  0  0
  1  2  1  0  0  0
  1  3  2  0  0  0
  1  5  1  0  0  0
  2 21  1  0  0  0
  3  4  1  0  0  0
  3 22  1  0  0  0
  4 20  2  0  0  0
  4 23  1  0  0  0
  5  6  2  0  0  0
  5 24  1  0  0  0
  6  7  1  0  0  0
  6 20  1  0  0  0
  7  8  1  0  0  0
  7 25  1  0  0  0
  7 26  1  0  0  0
  8  9  1  0  0  0
  8 27  1  0  0  0
  8 28  1  0  0  0
  9 10  1  0  0  0
  9 19  1  0  0  0
  9 29  1  0  0  0
 10 11  2  0  0  0
 10 15  1  0  0  0
 11 12  1  0  0  0
 11 30  1  0  0  0
 12 13  1  0  0  0
 12 31  1  0  0  0
 12 32  1  0  0  0
 13 14  2  0  0  0
 13 15  1  0  0  0
 15 16  1  0  0  0
 15 17  1  0  0  0
 16 33  1  0  0  0
 16 34  1  0  0  0
 16 35  1  0  0  0
 17 18  1  0  0  0
 17 36  1  0  0  0
 17 37  1  0  0  0
 18 19  1  0  0  0
 18 38  1  0  0  0
 18 39  1  0  0  0
 19 20  1  0  0  0
 19 40  1  0  0  0
 21 41  1  0  0  0
 21 42  1  0  0  0
 21 43  1  0  0  0
M  END
>  <Name>
tox-159

>  <substance>
14-Dehydroestrone 3-methyl ether

>  <CASRN>
17550-11-7

>  <from_NCI>
0

>  <RBA>
0.000000

>  <method>
RUC

>  <chemical_class>
Steroid, nonphenolic

>  <set>
0

$$$$
tox-160
  Cerius2 12190218263D 1   1.00000                          
 Structure written by MMmdl.
 43 46  0  0  0  0  0  0  0  0999 V2000
   -0.5975    0.6569   -0.3430 C   0  0  0  0  0  0
    0.7364   -0.1451   -0.4345 C   0  0  0  0  0  0
   -1.8053   -0.2586   -0.5220 C   0  0  0  0  0  0
   -0.6299    1.5507    0.9257 C   0  0  0  0  0  0
    1.9040    0.8370   -0.3371 C   0  0  0  0  0  0
    0.7468   -0.9461   -1.7381 C   0  0  0  0  0  0
   -1.6885   -1.4802   -1.2044 C   0  0  0  0  0  0
   -3.0831    0.1194   -0.0976 C   0  0  0  0  0  0
    0.6298    2.4218    1.0973 C   0  0  0  0  0  0
    1.9136    1.5901    1.0069 C   0  0  0  0  0  0
    3.3306    0.3169   -0.4647 C   0  0  0  0  0  0
   -0.3606   -1.9967   -1.7116 C   0  0  0  0  0  0
   -2.8305   -2.2977   -1.3910 C   0  0  0  0  0  0
   -4.1991   -0.7113   -0.3070 C   0  0  0  0  0  0
    3.2071    2.4028    0.8497 C   0  0  0  0  0  0
    2.0425    0.6910    2.2597 C   0  0  0  0  0  0
    4.1851    1.4348    0.1575 C   0  0  0  0  0  0
   -4.1236   -1.9537   -0.9555 C   0  0  0  0  0  0
   -5.1359   -2.7014   -1.1371 O   0  0  0  0  0  0
   -0.6319    1.3428   -1.2038 H   0  0  0  0  0  0
    0.7915   -0.8629    0.3944 H   0  0  0  0  0  0
   -0.7765    0.9260    1.8150 H   0  0  0  0  0  0
   -1.4888    2.2308    0.8870 H   0  0  0  0  0  0
    1.7748    1.5717   -1.1495 H   0  0  0  0  0  0
    1.7082   -1.4498   -1.8876 H   0  0  0  0  0  0
    0.6023   -0.2735   -2.5935 H   0  0  0  0  0  0
   -3.2539    1.0713    0.4010 H   0  0  0  0  0  0
    0.5806    2.9559    2.0538 H   0  0  0  0  0  0
    0.6268    3.1915    0.3144 H   0  0  0  0  0  0
    3.6116    0.1371   -1.5073 H   0  0  0  0  0  0
    3.4683   -0.6227    0.0817 H   0  0  0  0  0  0
   -0.0524   -2.8241   -1.0595 H   0  0  0  0  0  0
   -0.4828   -2.4024   -2.7231 H   0  0  0  0  0  0
   -2.6891   -3.2528   -1.9080 H   0  0  0  0  0  0
   -5.1654   -0.3512    0.0587 H   0  0  0  0  0  0
    3.6058    2.7721    1.8002 H   0  0  0  0  0  0
    3.0441    3.2741    0.2030 H   0  0  0  0  0  0
    2.0919    1.3082    3.1647 H   0  0  0  0  0  0
    2.9476    0.0758    2.2450 H   0  0  0  0  0  0
    1.1958    0.0104    2.3820 H   0  0  0  0  0  0
    4.7678    1.9617   -0.6057 H   0  0  0  0  0  0
    4.8941    1.0112    0.8772 H   0  0  0  0  0  0
   -5.8256   -2.3294   -0.8079 H   0  0  0  0  0  0
  1  2  1  0  0  0
  1  3  1  0  0  0
  1  4  1  0  0  0
  1 20  1  0  0  0
  2  5  1  0  0  0
  2  6  1  0  0  0
  2 21  1  0  0  0
  3  7  2  0  0  0
  3  8  1  0  0  0
  4  9  1  0  0  0
  4 22  1  0  0  0
  4 23  1  0  0  0
  5 10  1  0  0  0
  5 11  1  0  0  0
  5 24  1  0  0  0
  6 12  1  0  0  0
  6 25  1  0  0  0
  6 26  1  0  0  0
  7 12  1  0  0  0
  7 13  1  0  0  0
  8 14  2  0  0  0
  8 27  1  0  0  0
  9 10  1  0  0  0
  9 28  1  0  0  0
  9 29  1  0  0  0
 10 15  1  0  0  0
 10 16  1  0  0  0
 11 17  1  0  0  0
 11 30  1  0  0  0
 11 31  1  0  0  0
 12 32  1  0  0  0
 12 33  1  0  0  0
 13 18  2  0  0  0
 13 34  1  0  0  0
 14 18  1  0  0  0
 14 35  1  0  0  0
 15 17  1  0  0  0
 15 36  1  0  0  0
 15 37  1  0  0  0
 16 38  1  0  0  0
 16 39  1  0  0  0
 16 40  1  0  0  0
 17 41  1  0  0  0
 17 42  1  0  0  0
 18 19  1  0  0  0
 19 43  1  0  0  0
M  END
>  <Name>
tox-160

>  <substance>
17-Desoxyestradiol

>  <CASRN>
53-63-4

>  <from_NCI>
1

>  <RBA>
31.000000

>  <method>
MCF-7 cytosol,RUC,RUC,RUC

>  <chemical_class>
Steroid, phenolic

>  <set>
1

$$$$
tox-161
  Cerius2 12190218263D 1   1.00000                          
 Structure written by MMmdl.
 43 46  0  0  0  0  0  0  0  0999 V2000
    2.2828    1.8376    0.0954 C   0  0  0  0  0  0
    2.1815    0.2867    0.1090 C   0  0  0  0  0  0
    1.3715    2.3404   -1.0426 C   0  0  0  0  0  0
    3.8288    1.9761   -0.1771 C   0  0  0  0  0  0
    0.7637   -0.2177    0.3881 C   0  0  0  0  0  0
    3.3148   -0.1402    1.0368 C   0  0  0  0  0  0
   -0.0767    1.8305   -0.9077 C   0  0  0  0  0  0
    4.3320    3.1657    0.1057 O   0  0  0  0  0  0
    4.4231    0.9086    0.7937 C   0  0  0  0  0  0
   -0.1806    0.2920   -0.7415 C   0  0  0  0  0  0
    0.6844   -1.7453    0.4482 C   0  0  0  0  0  0
   -1.6000   -0.2472   -0.5631 C   0  0  0  0  0  0
   -0.7169   -2.1763    0.8713 C   0  0  0  0  0  0
   -1.8283   -1.4359    0.1641 C   0  0  0  0  0  0
   -2.6980    0.3706   -1.1880 C   0  0  0  0  0  0
   -3.1349   -1.9401    0.2909 C   0  0  0  0  0  0
   -3.9898   -0.1456   -1.0614 C   0  0  0  0  0  0
   -4.2095   -1.2983   -0.3183 C   0  0  0  0  0  0
    1.8278    2.4821    1.4416 C   0  0  0  0  0  0
    2.4532   -0.0883   -0.8921 H   0  0  0  0  0  0
    1.7667    2.0046   -2.0103 H   0  0  0  0  0  0
    1.3701    3.4366   -1.0749 H   0  0  0  0  0  0
    3.9954    1.5724   -1.1893 H   0  0  0  0  0  0
    0.4209    0.1651    1.3575 H   0  0  0  0  0  0
    3.6711   -1.1497    0.8070 H   0  0  0  0  0  0
    3.0027   -0.1294    2.0869 H   0  0  0  0  0  0
   -0.6115    2.1497   -1.8098 H   0  0  0  0  0  0
   -0.5739    2.3302   -0.0678 H   0  0  0  0  0  0
    4.7430    1.3234    1.7594 H   0  0  0  0  0  0
    5.3071    0.4377    0.3454 H   0  0  0  0  0  0
    0.1698   -0.1445   -1.6898 H   0  0  0  0  0  0
    1.4089   -2.1535    1.1615 H   0  0  0  0  0  0
    0.9267   -2.1735   -0.5331 H   0  0  0  0  0  0
   -0.8330   -2.0049    1.9492 H   0  0  0  0  0  0
   -0.8197   -3.2542    0.6966 H   0  0  0  0  0  0
   -2.5715    1.2650   -1.7945 H   0  0  0  0  0  0
   -3.3187   -2.8453    0.8696 H   0  0  0  0  0  0
   -4.8244    0.3548   -1.5498 H   0  0  0  0  0  0
   -5.2156   -1.7006   -0.2165 H   0  0  0  0  0  0
    1.8939    3.5749    1.3859 H   0  0  0  0  0  0
    2.4448    2.1617    2.2868 H   0  0  0  0  0  0
    0.7915    2.2485    1.6975 H   0  0  0  0  0  0
    5.1648    3.1688   -0.0643 H   0  0  0  0  0  0
  1  2  1  0  0  0
  1  3  1  0  0  0
  1  4  1  0  0  0
  1 19  1  0  0  0
  2  5  1  0  0  0
  2  6  1  0  0  0
  2 20  1  0  0  0
  3  7  1  0  0  0
  3 21  1  0  0  0
  3 22  1  0  0  0
  4  8  1  0  0  0
  4  9  1  0  0  0
  4 23  1  0  0  0
  5 10  1  0  0  0
  5 11  1  0  0  0
  5 24  1  0  0  0
  6  9  1  0  0  0
  6 25  1  0  0  0
  6 26  1  0  0  0
  7 10  1  0  0  0
  7 27  1  0  0  0
  7 28  1  0  0  0
  8 43  1  0  0  0
  9 29  1  0  0  0
  9 30  1  0  0  0
 10 12  1  0  0  0
 10 31  1  0  0  0
 11 13  1  0  0  0
 11 32  1  0  0  0
 11 33  1  0  0  0
 12 14  2  0  0  0
 12 15  1  0  0  0
 13 14  1  0  0  0
 13 34  1  0  0  0
 13 35  1  0  0  0
 14 16  1  0  0  0
 15 17  2  0  0  0
 15 36  1  0  0  0
 16 18  2  0  0  0
 16 37  1  0  0  0
 17 18  1  0  0  0
 17 38  1  0  0  0
 18 39  1  0  0  0
 19 40  1  0  0  0
 19 41  1  0  0  0
 19 42  1  0  0  0
M  END
>  <Name>
tox-161

>  <substance>
3-Deoxyestradiol

>  <CASRN>
2529-64-8

>  <from_NCI>
1

>  <RBA>
4.300000

>  <method>
MCF-7 cytosol,RUC

>  <chemical_class>
Steroid, nonphenolic

>  <set>
0

$$$$
tox-162
  Cerius2 12190218263D 1   1.00000                          
 Structure written by MMmdl.
 41 44  0  0  0  0  0  0  0  0999 V2000
    0.7175   -0.4418   -0.4505 C   0  0  0  0  0  0
    2.0585    0.2913   -0.4747 C   0  0  0  0  0  0
   -0.4214    0.6233   -0.3859 C   0  0  0  0  0  0
    0.5008   -1.3259   -1.6797 C   0  0  0  0  0  0
    2.2765    1.1061    0.8189 C   0  0  0  0  0  0
    3.3548   -0.4930   -0.6440 C   0  0  0  0  0  0
   -1.7988   -0.0359   -0.4367 C   0  0  0  0  0  0
   -0.2059    1.6117    0.7933 C   0  0  0  0  0  0
   -0.7903   -2.1246   -1.5235 C   0  0  0  0  0  0
    1.2164    2.2023    0.8620 C   0  0  0  0  0  0
    3.7100    1.5452    0.5616 C   0  0  0  0  0  0
    2.2907    0.2974    2.1301 C   0  0  0  0  0  0
    4.4313    0.5621   -0.3468 C   0  0  0  0  0  0
   -1.9600   -1.3134   -1.0160 C   0  0  0  0  0  0
   -2.9476    0.6430    0.0072 C   0  0  0  0  0  0
    4.2368    2.5465    1.0400 O   0  0  0  0  0  0
   -3.2390   -1.8933   -1.0883 C   0  0  0  0  0  0
   -4.2135    0.0589   -0.0784 C   0  0  0  0  0  0
   -4.3592   -1.2111   -0.6218 C   0  0  0  0  0  0
    0.6685   -1.0891    0.4346 H   0  0  0  0  0  0
    2.0236    0.9890   -1.3295 H   0  0  0  0  0  0
   -0.3632    1.2267   -1.3052 H   0  0  0  0  0  0
    1.3326   -2.0253   -1.8179 H   0  0  0  0  0  0
    0.4500   -0.7066   -2.5845 H   0  0  0  0  0  0
    3.4733   -0.8983   -1.6537 H   0  0  0  0  0  0
    3.4173   -1.3295    0.0603 H   0  0  0  0  0  0
   -0.4431    1.1112    1.7401 H   0  0  0  0  0  0
   -0.9010    2.4553    0.7111 H   0  0  0  0  0  0
   -0.6187   -2.9446   -0.8143 H   0  0  0  0  0  0
   -1.0432   -2.5744   -2.4913 H   0  0  0  0  0  0
    1.3582    2.8963    0.0230 H   0  0  0  0  0  0
    1.3203    2.8068    1.7712 H   0  0  0  0  0  0
    2.5000    0.9593    2.9794 H   0  0  0  0  0  0
    3.0716   -0.4704    2.1392 H   0  0  0  0  0  0
    1.3387   -0.1996    2.3339 H   0  0  0  0  0  0
    4.7344    1.0827   -1.2598 H   0  0  0  0  0  0
    5.2955    0.1240    0.1571 H   0  0  0  0  0  0
   -2.8837    1.6462    0.4235 H   0  0  0  0  0  0
   -3.3656   -2.8884   -1.5148 H   0  0  0  0  0  0
   -5.0871    0.6023    0.2778 H   0  0  0  0  0  0
   -5.3444   -1.6688   -0.6872 H   0  0  0  0  0  0
  1  2  1  0  0  0
  1  3  1  0  0  0
  1  4  1  0  0  0
  1 20  1  0  0  0
  2  5  1  0  0  0
  2  6  1  0  0  0
  2 21  1  0  0  0
  3  7  1  0  0  0
  3  8  1  0  0  0
  3 22  1  0  0  0
  4  9  1  0  0  0
  4 23  1  0  0  0
  4 24  1  0  0  0
  5 10  1  0  0  0
  5 11  1  0  0  0
  5 12  1  0  0  0
  6 13  1  0  0  0
  6 25  1  0  0  0
  6 26  1  0  0  0
  7 14  2  0  0  0
  7 15  1  0  0  0
  8 10  1  0  0  0
  8 27  1  0  0  0
  8 28  1  0  0  0
  9 14  1  0  0  0
  9 29  1  0  0  0
  9 30  1  0  0  0
 10 31  1  0  0  0
 10 32  1  0  0  0
 11 13  1  0  0  0
 11 16  2  0  0  0
 12 33  1  0  0  0
 12 34  1  0  0  0
 12 35  1  0  0  0
 13 36  1  0  0  0
 13 37  1  0  0  0
 14 17  1  0  0  0
 15 18  2  0  0  0
 15 38  1  0  0  0
 17 19  2  0  0  0
 17 39  1  0  0  0
 18 19  1  0  0  0
 18 40  1  0  0  0
 19 41  1  0  0  0
M  END
>  <Name>
tox-162

>  <substance>
3-Deoxyestrone

>  <CASRN>
53-45-2

>  <from_NCI>
1

>  <RBA>
0.006000

>  <method>
RUC

>  <chemical_class>
Steroid, nonphenolic

>  <set>
0

$$$$
tox-163
  Cerius2 12190218263D 1   1.00000                          
 Structure written by MMmdl.
 30 31  0  0  0  0  0  0  0  0999 V2000
   -2.6817   -1.0308   -0.0117 C   0  0  0  0  0  0
   -2.0072   -2.1845   -0.1584 C   0  0  0  0  0  0
   -0.5543   -2.3724   -0.2507 C   0  0  0  0  0  0
    0.2253   -1.6751   -1.1787 C   0  0  0  0  0  0
    1.6047   -1.9026   -1.2607 C   0  0  0  0  0  0
    2.2243   -2.8500   -0.4442 C   0  0  0  0  0  0
    1.4459   -3.5360    0.4895 C   0  0  0  0  0  0
    0.0662   -3.3132    0.5768 C   0  0  0  0  0  0
   -2.1299    0.3209    0.1423 C   0  0  0  0  0  0
   -2.6172    1.3532   -0.6650 C   0  0  0  0  0  0
   -2.1330    2.6590   -0.5185 C   0  0  0  0  0  0
   -1.1494    2.9562    0.4262 C   0  0  0  0  0  0
   -0.6989    1.9334    1.2624 C   0  0  0  0  0  0
   -1.1791    0.6254    1.1212 C   0  0  0  0  0  0
   -0.7232    4.2578    0.6130 N   0  0  0  0  0  0
    3.5938   -3.0282   -0.4859 N   0  0  0  0  0  0
   -3.7713   -1.0746    0.0020 H   0  0  0  0  0  0
   -2.5833   -3.1082   -0.2239 H   0  0  0  0  0  0
   -0.2287   -0.9458   -1.8473 H   0  0  0  0  0  0
    2.1899   -1.3319   -1.9797 H   0  0  0  0  0  0
    1.9054   -4.2603    1.1600 H   0  0  0  0  0  0
   -0.5140   -3.8759    1.3067 H   0  0  0  0  0  0
   -3.3787    1.1544   -1.4177 H   0  0  0  0  0  0
   -2.5354    3.4440   -1.1566 H   0  0  0  0  0  0
    0.0354    2.1430    2.0383 H   0  0  0  0  0  0
   -0.8066   -0.1472    1.7914 H   0  0  0  0  0  0
    0.0835    4.4537    1.2012 H   0  0  0  0  0  0
   -0.9447    4.9738   -0.0753 H   0  0  0  0  0  0
    4.0294   -3.8007    0.0126 H   0  0  0  0  0  0
    4.1436   -2.6283   -1.2427 H   0  0  0  0  0  0
  1  2  2  0  0  0
  1  9  1  0  0  0
  1 17  1  0  0  0
  2  3  1  0  0  0
  2 18  1  0  0  0
  3  4  2  0  0  0
  3  8  1  0  0  0
  4  5  1  0  0  0
  4 19  1  0  0  0
  5  6  2  0  0  0
  5 20  1  0  0  0
  6  7  1  0  0  0
  6 16  1  0  0  0
  7  8  2  0  0  0
  7 21  1  0  0  0
  8 22  1  0  0  0
  9 10  2  0  0  0
  9 14  1  0  0  0
 10 11  1  0  0  0
 10 23  1  0  0  0
 11 12  2  0  0  0
 11 24  1  0  0  0
 12 13  1  0  0  0
 12 15  1  0  0  0
 13 14  2  0  0  0
 13 25  1  0  0  0
 14 26  1  0  0  0
 15 27  1  0  0  0
 15 28  1  0  0  0
 16 29  1  0  0  0
 16 30  1  0  0  0
M  END
>  <Name>
tox-163

>  <substance>
4,4'-Diaminostilbene dihydrochloride

>  <CASRN>
66635-40-3

>  <from_NCI>
0

>  <RBA>
0.000000

>  <method>
RUC

>  <chemical_class>
Stilbene

>  <set>
2

$$$$
tox-165
  Cerius2 12190218263D 1   1.00000                          
 Structure written by MMmdl.
 49 52  0  0  0  0  0  0  0  0999 V2000
   -6.9432   -4.7298   11.7813 C   0  0  0  0  0  0
   -7.7471   -4.7269   13.1174 C   0  0  0  0  0  0
   -7.8733   -5.1459   10.6397 C   0  0  0  0  0  0
   -5.7412   -5.6797   11.8868 C   0  0  0  0  0  0
   -6.8498   -4.2572   14.3305 C   0  0  0  0  0  0
   -9.1064   -3.9793   13.0105 C   0  0  0  0  0  0
   -9.0772   -4.1962   10.5010 C   0  0  0  0  0  0
   -7.3230   -5.2651    9.2222 C   0  0  0  0  0  0
   -5.0112   -5.5762   13.1887 C   0  0  0  0  0  0
   -5.4750   -4.9411   14.2802 C   0  0  0  0  0  0
   -7.5735   -4.6495   15.6529 C   0  0  0  0  0  0
   -6.6214   -2.7269   14.3049 C   0  0  0  0  0  0
   -9.9258   -4.3370   11.7597 C   0  0  0  0  0  0
   -9.6622   -4.7726    9.2264 C   0  0  0  0  0  0
   -8.7404   -2.7231   10.2084 C   0  0  0  0  0  0
   -8.5946   -5.4447    8.3796 C   0  0  0  0  0  0
   -4.6353   -4.8765   15.5367 C   0  0  0  0  0  0
   -6.7135   -4.5107   16.9077 C   0  0  0  0  0  0
  -10.8396   -4.6900    8.9040 O   0  0  0  0  0  0
   -5.4194   -5.3048   16.7776 C   0  0  0  0  0  0
   -4.6356   -5.0849   17.9473 O   0  0  0  0  0  0
   -6.5563   -3.7237   11.5839 H   0  0  0  0  0  0
   -8.0137   -5.7799   13.3059 H   0  0  0  0  0  0
   -8.2513   -6.1520   10.8943 H   0  0  0  0  0  0
   -5.0406   -5.4611   11.0717 H   0  0  0  0  0  0
   -6.0590   -6.7222   11.7612 H   0  0  0  0  0  0
   -8.9470   -2.8971   13.0113 H   0  0  0  0  0  0
   -9.7201   -4.1998   13.8913 H   0  0  0  0  0  0
   -6.6475   -6.1176    9.1025 H   0  0  0  0  0  0
   -6.7776   -4.3634    8.9229 H   0  0  0  0  0  0
   -4.0347   -6.0563   13.2154 H   0  0  0  0  0  0
   -7.9116   -5.6929   15.5911 H   0  0  0  0  0  0
   -8.4758   -4.0415   15.7887 H   0  0  0  0  0  0
   -5.9204   -2.3984   15.0794 H   0  0  0  0  0  0
   -7.5498   -2.1753   14.4835 H   0  0  0  0  0  0
   -6.2103   -2.3922   13.3471 H   0  0  0  0  0  0
  -10.8118   -3.6925   11.7033 H   0  0  0  0  0  0
  -10.3053   -5.3627   11.8532 H   0  0  0  0  0  0
   -9.6614   -2.1328   10.1293 H   0  0  0  0  0  0
   -8.2107   -2.5964    9.2580 H   0  0  0  0  0  0
   -8.1259   -2.2653   10.9879 H   0  0  0  0  0  0
   -8.8475   -6.5030    8.2675 H   0  0  0  0  0  0
   -8.5037   -4.9600    7.4053 H   0  0  0  0  0  0
   -4.2528   -3.8571   15.6729 H   0  0  0  0  0  0
   -3.7390   -5.5045   15.4528 H   0  0  0  0  0  0
   -7.2745   -4.8622   17.7824 H   0  0  0  0  0  0
   -6.4925   -3.4556   17.1105 H   0  0  0  0  0  0
   -5.6499   -6.3761   16.7282 H   0  0  0  0  0  0
   -3.8242   -5.6116   17.8491 H   0  0  0  0  0  0
  1  2  1  0  0  0
  1  3  1  0  0  0
  1  4  1  0  0  0
  1 22  1  0  0  0
  2  5  1  0  0  0
  2  6  1  0  0  0
  2 23  1  0  0  0
  3  7  1  0  0  0
  3  8  1  0  0  0
  3 24  1  0  0  0
  4  9  1  0  0  0
  4 25  1  0  0  0
  4 26  1  0  0  0
  5 10  1  0  0  0
  5 11  1  0  0  0
  5 12  1  0  0  0
  6 13  1  0  0  0
  6 27  1  0  0  0
  6 28  1  0  0  0
  7 13  1  0  0  0
  7 14  1  0  0  0
  7 15  1  0  0  0
  8 16  1  0  0  0
  8 29  1  0  0  0
  8 30  1  0  0  0
  9 10  2  0  0  0
  9 31  1  0  0  0
 10 17  1  0  0  0
 11 18  1  0  0  0
 11 32  1  0  0  0
 11 33  1  0  0  0
 12 34  1  0  0  0
 12 35  1  0  0  0
 12 36  1  0  0  0
 13 37  1  0  0  0
 13 38  1  0  0  0
 14 16  1  0  0  0
 14 19  2  0  0  0
 15 39  1  0  0  0
 15 40  1  0  0  0
 15 41  1  0  0  0
 16 42  1  0  0  0
 16 43  1  0  0  0
 17 20  1  0  0  0
 17 44  1  0  0  0
 17 45  1  0  0  0
 18 20  1  0  0  0
 18 46  1  0  0  0
 18 47  1  0  0  0
 20 21  1  0  0  0
 20 48  1  0  0  0
 21 49  1  0  0  0
M  END
>  <Name>
tox-165

>  <substance>
Dehydroepiandrosterone

>  <CASRN>
53-43-0

>  <from_NCI>
1

>  <RBA>
0.010000

>  <method>
GST-hERadef,GST-mERadef,hERa

>  <chemical_class>
Steroid, nonphenolic

>  <set>
2

$$$$
tox-166
  Cerius2 12190218263D 1   1.00000                          
 Structure written by MMmdl.
 57 60  0  0  0  0  0  0  0  0999 V2000
   -1.1305   -0.0719   -0.4229 C   0  0  0  0  0  0
    0.1529   -0.8654    0.0191 C   0  0  0  0  0  0
   -2.4559   -0.9685   -0.3400 C   0  0  0  0  0  0
   -1.2068    1.4199    0.1541 C   0  0  0  0  0  0
   -0.9445    0.1408   -1.7991 F   0  0  0  0  0  0
    1.4054   -0.0163   -0.2768 C   0  0  0  0  0  0
    0.2694   -2.2202   -0.7161 C   0  0  0  0  0  0
   -2.1862   -2.2904   -1.0878 C   0  0  0  0  0  0
   -3.6479   -0.2386   -0.9626 C   0  0  0  0  0  0
   -2.8829   -1.3527    1.0980 C   0  0  0  0  0  0
    0.1825    2.1559    0.0445 C   0  0  0  0  0  0
   -1.6154    1.5062    1.4125 O   0  0  0  0  0  0
    1.4513    1.3442    0.4617 C   0  0  0  0  0  0
    2.7757   -0.6329   -0.0019 C   0  0  0  0  0  0
   -0.9885   -3.0710   -0.6139 C   0  0  0  0  0  0
   -2.9240   -2.7335   -2.1219 C   0  0  0  0  0  0
   -4.3807   -0.6801   -1.9935 C   0  0  0  0  0  0
    2.8903    1.9038    0.0033 C   0  0  0  0  0  0
    1.4636    1.1514    2.0166 C   0  0  0  0  0  0
    3.7605    0.5734    0.0779 C   0  0  0  0  0  0
   -4.0756   -1.9682   -2.6424 C   0  0  0  0  0  0
    3.3543    3.1073    0.9391 C   0  0  0  0  0  0
    2.8895    2.3914   -1.2428 O   0  0  0  0  0  0
    4.9162    0.3972   -0.9191 C   0  0  0  0  0  0
   -4.7487   -2.3863   -3.5814 O   0  0  0  0  0  0
    4.7211    2.9864    1.7023 C   0  0  0  0  0  0
    2.6331    4.1127    1.0705 O   0  0  0  0  0  0
    5.1058    4.1401    2.2444 O   0  0  0  0  0  0
    0.0917   -1.0828    1.0902 H   0  0  0  0  0  0
   -1.8147    1.9509   -0.5968 H   0  0  0  0  0  0
    1.3829    0.1829   -1.3598 H   0  0  0  0  0  0
    1.1076   -2.7951   -0.3045 H   0  0  0  0  0  0
    0.4994   -2.0472   -1.7761 H   0  0  0  0  0  0
   -3.9212    0.7148   -0.5126 H   0  0  0  0  0  0
   -3.6256   -2.1613    1.0922 H   0  0  0  0  0  0
   -3.3498   -0.5167    1.6293 H   0  0  0  0  0  0
   -2.0387   -1.6923    1.7061 H   0  0  0  0  0  0
    0.1606    3.1161    0.5795 H   0  0  0  0  0  0
    0.2860    2.4253   -1.0162 H   0  0  0  0  0  0
    3.0548   -1.3429   -0.7882 H   0  0  0  0  0  0
    2.7782   -1.1814    0.9476 H   0  0  0  0  0  0
   -1.1393   -3.4014    0.4200 H   0  0  0  0  0  0
   -0.8485   -3.9834   -1.2064 H   0  0  0  0  0  0
   -2.7066   -3.6632   -2.6359 H   0  0  0  0  0  0
   -5.2196   -0.1177   -2.3858 H   0  0  0  0  0  0
    1.3653    2.1175    2.5244 H   0  0  0  0  0  0
    2.3847    0.6904    2.3832 H   0  0  0  0  0  0
    0.6474    0.5214    2.3749 H   0  0  0  0  0  0
    4.2223    0.5015    1.0690 H   0  0  0  0  0  0
    5.6084    1.2433   -0.8852 H   0  0  0  0  0  0
    4.5525    0.2902   -1.9467 H   0  0  0  0  0  0
    5.4865   -0.5073   -0.6803 H   0  0  0  0  0  0
    5.4004    2.5512    0.9568 H   0  0  0  0  0  0
    4.5452    2.1483    2.3936 H   0  0  0  0  0  0
   -1.6313    2.3222    1.6499 H   0  0  0  0  0  0
    3.6675    2.6731   -1.4373 H   0  0  0  0  0  0
    5.8469    4.0312    2.6462 H   0  0  0  0  0  0
  1  2  1  0  0  0
  1  3  1  0  0  0
  1  4  1  0  0  0
  1  5  1  0  0  0
  2  6  1  0  0  0
  2  7  1  0  0  0
  2 29  1  0  0  0
  3  8  1  0  0  0
  3  9  1  0  0  0
  3 10  1  0  0  0
  4 11  1  0  0  0
  4 12  1  0  0  0
  4 30  1  0  0  0
  6 13  1  0  0  0
  6 14  1  0  0  0
  6 31  1  0  0  0
  7 15  1  0  0  0
  7 32  1  0  0  0
  7 33  1  0  0  0
  8 15  1  0  0  0
  8 16  2  0  0  0
  9 17  2  0  0  0
  9 34  1  0  0  0
 10 35  1  0  0  0
 10 36  1  0  0  0
 10 37  1  0  0  0
 11 13  1  0  0  0
 11 38  1  0  0  0
 11 39  1  0  0  0
 12 55  1  0  0  0
 13 18  1  0  0  0
 13 19  1  0  0  0
 14 20  1  0  0  0
 14 40  1  0  0  0
 14 41  1  0  0  0
 15 42  1  0  0  0
 15 43  1  0  0  0
 16 21  1  0  0  0
 16 44  1  0  0  0
 17 21  1  0  0  0
 17 45  1  0  0  0
 18 20  1  0  0  0
 18 22  1  0  0  0
 18 23  1  0  0  0
 19 46  1  0  0  0
 19 47  1  0  0  0
 19 48  1  0  0  0
 20 24  1  0  0  0
 20 49  1  0  0  0
 21 25  2  0  0  0
 22 26  1  0  0  0
 22 27  2  0  0  0
 23 56  1  0  0  0
 24 50  1  0  0  0
 24 51  1  0  0  0
 24 52  1  0  0  0
 26 28  1  0  0  0
 26 53  1  0  0  0
 26 54  1  0  0  0
 28 57  1  0  0  0
M  END
>  <Name>
tox-166

>  <substance>
Dexamethasone

>  <CASRN>
50-02-2

>  <from_NCI>
1

>  <RBA>
0.000000

>  <method>
RUC

>  <chemical_class>
Steroid, nonphenolic

>  <set>
1

$$$$
tox-167
  Cerius2 12190218263D 1   1.00000                          
 Structure written by MMmdl.
 36 40  0  0  0  0  0  0  0  0999 V2000
    1.4498    0.0508   -0.0356 C   0  0  0  0  0  0
    2.8925    0.0560   -0.0434 C   0  0  0  0  0  0
    0.7621   -1.1815   -0.0367 C   0  0  0  0  0  0
    0.6453    1.2153   -0.0266 C   0  0  0  0  0  0
    3.5882   -1.1807   -0.0525 C   0  0  0  0  0  0
    3.6879    1.2305   -0.0425 C   0  0  0  0  0  0
   -0.6466   -1.2153   -0.0285 C   0  0  0  0  0  0
    1.4820   -2.3803   -0.0459 C   0  0  0  0  0  0
   -0.7634    1.1815   -0.0185 C   0  0  0  0  0  0
    2.8740   -2.3805   -0.0538 C   0  0  0  0  0  0
    4.9931   -1.2131   -0.0602 C   0  0  0  0  0  0
    5.0857    1.1855   -0.0502 C   0  0  0  0  0  0
   -1.4511   -0.0508   -0.0190 C   0  0  0  0  0  0
   -1.4833    2.3803   -0.0099 C   0  0  0  0  0  0
    5.7386   -0.0374   -0.0591 C   0  0  0  0  0  0
   -2.8938   -0.0560   -0.0100 C   0  0  0  0  0  0
   -2.8753    2.3805   -0.0015 C   0  0  0  0  0  0
   -3.5895    1.1807   -0.0012 C   0  0  0  0  0  0
   -3.6892   -1.2305   -0.0092 C   0  0  0  0  0  0
   -4.9944    1.2131    0.0079 C   0  0  0  0  0  0
   -5.0870   -1.1855    0.0000 C   0  0  0  0  0  0
   -5.7399    0.0374    0.0086 C   0  0  0  0  0  0
    1.1223    2.1947   -0.0256 H   0  0  0  0  0  0
    3.2297    2.2175   -0.0357 H   0  0  0  0  0  0
   -1.1236   -2.1947   -0.0296 H   0  0  0  0  0  0
    0.9636   -3.3393   -0.0471 H   0  0  0  0  0  0
    3.3949   -3.3379   -0.0609 H   0  0  0  0  0  0
    5.5238   -2.1654   -0.0672 H   0  0  0  0  0  0
    5.6589    2.1111   -0.0491 H   0  0  0  0  0  0
   -0.9649    3.3393   -0.0097 H   0  0  0  0  0  0
    6.8260   -0.0791   -0.0650 H   0  0  0  0  0  0
   -3.3962    3.3379    0.0051 H   0  0  0  0  0  0
   -3.2310   -2.2175   -0.0156 H   0  0  0  0  0  0
   -5.5251    2.1654    0.0148 H   0  0  0  0  0  0
   -5.6601   -2.1111    0.0005 H   0  0  0  0  0  0
   -6.8273    0.0791    0.0158 H   0  0  0  0  0  0
  1  2  2  0  0  0
  1  3  1  0  0  0
  1  4  1  0  0  0
  2  5  1  0  0  0
  2  6  1  0  0  0
  3  7  1  0  0  0
  3  8  2  0  0  0
  4  9  2  0  0  0
  4 23  1  0  0  0
  5 10  2  0  0  0
  5 11  1  0  0  0
  6 12  2  0  0  0
  6 24  1  0  0  0
  7 13  2  0  0  0
  7 25  1  0  0  0
  8 10  1  0  0  0
  8 26  1  0  0  0
  9 13  1  0  0  0
  9 14  1  0  0  0
 10 27  1  0  0  0
 11 15  2  0  0  0
 11 28  1  0  0  0
 12 15  1  0  0  0
 12 29  1  0  0  0
 13 16  1  0  0  0
 14 17  2  0  0  0
 14 30  1  0  0  0
 15 31  1  0  0  0
 16 18  2  0  0  0
 16 19  1  0  0  0
 17 18  1  0  0  0
 17 32  1  0  0  0
 18 20  1  0  0  0
 19 21  2  0  0  0
 19 33  1  0  0  0
 20 22  2  0  0  0
 20 34  1  0  0  0
 21 22  1  0  0  0
 21 35  1  0  0  0
 22 36  1  0  0  0
M  END
>  <Name>
tox-167

>  <substance>
Dibenz[ah]anthracene

>  <CASRN>
53-70-3

>  <from_NCI>
1

>  <RBA>
0.000000

>  <method>
MCF-7 cells

>  <chemical_class>
Polycyclic aromatic hydrocarbon

>  <set>
0

$$$$
tox-168
  Cerius2 12190218263D 1   1.00000                          
 Structure written by MMmdl.
 50 52  0  0  0  0  0  0  0  0999 V2000
   -3.1774    0.7592   -0.9880 C   0  0  0  0  0  0
   -3.1360   -0.6436   -0.9776 C   0  0  0  0  0  0
   -4.3662    1.4431   -1.2479 C   0  0  0  0  0  0
   -2.0568    1.4989   -0.6937 O   0  0  0  0  0  0
   -4.3042   -1.3539   -1.2621 C   0  0  0  0  0  0
   -1.9357   -1.2133   -0.6510 O   0  0  0  0  0  0
   -5.5244    0.7243   -1.5349 C   0  0  0  0  0  0
   -1.2945    1.7284   -1.8964 C   0  0  0  0  0  0
   -5.4921   -0.6701   -1.5451 C   0  0  0  0  0  0
   -1.7415   -2.5847   -1.0293 C   0  0  0  0  0  0
   -0.0959    2.6176   -1.5644 C   0  0  0  0  0  0
   -0.2721   -2.9323   -0.7903 C   0  0  0  0  0  0
    0.8712    1.8683   -0.8097 O   0  0  0  0  0  0
    0.5463   -2.1688   -1.6922 O   0  0  0  0  0  0
    2.0277    2.6694   -0.5115 C   0  0  0  0  0  0
    1.9382   -2.3156   -1.3871 C   0  0  0  0  0  0
    3.0475    1.8305    0.2603 C   0  0  0  0  0  0
    2.7492   -1.3870   -2.2943 C   0  0  0  0  0  0
    3.5915    0.8416   -0.6277 O   0  0  0  0  0  0
    4.1702   -1.4906   -2.1286 O   0  0  0  0  0  0
    4.3775   -0.1343   -0.0775 C   0  0  0  0  0  0
    4.6537   -1.2655   -0.8648 C   0  0  0  0  0  0
    4.9571   -0.0407    1.1940 C   0  0  0  0  0  0
    5.5248   -2.2554   -0.3950 C   0  0  0  0  0  0
    5.8030   -1.0481    1.6685 C   0  0  0  0  0  0
    6.0914   -2.1523    0.8731 C   0  0  0  0  0  0
   -4.3916    2.5302   -1.2320 H   0  0  0  0  0  0
   -4.3315   -2.4402   -1.2572 H   0  0  0  0  0  0
   -6.4542    1.2496   -1.7462 H   0  0  0  0  0  0
   -1.9211    2.2392   -2.6377 H   0  0  0  0  0  0
   -0.9431    0.7717   -2.3014 H   0  0  0  0  0  0
   -6.3997   -1.2311   -1.7640 H   0  0  0  0  0  0
   -1.9808   -2.7149   -2.0914 H   0  0  0  0  0  0
   -2.3684   -3.2319   -0.4067 H   0  0  0  0  0  0
   -0.4167    3.4812   -0.9713 H   0  0  0  0  0  0
    0.3706    2.9598   -2.4947 H   0  0  0  0  0  0
   -0.1004   -3.9983   -0.9721 H   0  0  0  0  0  0
    0.0006   -2.6842    0.2420 H   0  0  0  0  0  0
    1.7181    3.5254    0.0977 H   0  0  0  0  0  0
    2.4672    3.0223   -1.4512 H   0  0  0  0  0  0
    2.2440   -3.3567   -1.5419 H   0  0  0  0  0  0
    2.1075   -2.0657   -0.3342 H   0  0  0  0  0  0
    2.5483    1.3395    1.1042 H   0  0  0  0  0  0
    3.8524    2.4859    0.6106 H   0  0  0  0  0  0
    2.4043   -0.3509   -2.2260 H   0  0  0  0  0  0
    2.5435   -1.6679   -3.3349 H   0  0  0  0  0  0
    4.7877    0.8157    1.8415 H   0  0  0  0  0  0
    5.7551   -3.1197   -1.0156 H   0  0  0  0  0  0
    6.2481   -0.9604    2.6585 H   0  0  0  0  0  0
    6.7592   -2.9304    1.2383 H   0  0  0  0  0  0
  1  2  2  0  0  0
  1  3  1  0  0  0
  1  4  1  0  0  0
  2  5  1  0  0  0
  2  6  1  0  0  0
  3  7  2  0  0  0
  3 27  1  0  0  0
  4  8  1  0  0  0
  5  9  2  0  0  0
  5 28  1  0  0  0
  6 10  1  0  0  0
  7  9  1  0  0  0
  7 29  1  0  0  0
  8 11  1  0  0  0
  8 30  1  0  0  0
  8 31  1  0  0  0
  9 32  1  0  0  0
 10 12  1  0  0  0
 10 33  1  0  0  0
 10 34  1  0  0  0
 11 13  1  0  0  0
 11 35  1  0  0  0
 11 36  1  0  0  0
 12 14  1  0  0  0
 12 37  1  0  0  0
 12 38  1  0  0  0
 13 15  1  0  0  0
 14 16  1  0  0  0
 15 17  1  0  0  0
 15 39  1  0  0  0
 15 40  1  0  0  0
 16 18  1  0  0  0
 16 41  1  0  0  0
 16 42  1  0  0  0
 17 19  1  0  0  0
 17 43  1  0  0  0
 17 44  1  0  0  0
 18 20  1  0  0  0
 18 45  1  0  0  0
 18 46  1  0  0  0
 19 21  1  0  0  0
 20 22  1  0  0  0
 21 22  2  0  0  0
 21 23  1  0  0  0
 22 24  1  0  0  0
 23 25  2  0  0  0
 23 47  1  0  0  0
 24 26  2  0  0  0
 24 48  1  0  0  0
 25 26  1  0  0  0
 25 49  1  0  0  0
 26 50  1  0  0  0
M  END
>  <Name>
tox-168

>  <substance>
Dibenzo-18-crown-6

>  <CASRN>
14187-32-7

>  <from_NCI>
1

>  <RBA>
0.000000

>  <method>
RUC

>  <chemical_class>
Crown ether

>  <set>
2

$$$$
tox-169
  Cerius2 12190218263D 1   1.00000                          
 Structure written by MMmdl.
 55 56  0  0  0  0  0  0  0  0999 V2000
   -1.2823   -1.6572    0.4333 C   0  0  0  0  0  0
   -0.0019   -2.3790    0.5836 C   0  0  0  0  0  0
    1.1927   -1.9349   -0.0074 C   0  0  0  0  0  0
    1.2074   -0.6634   -0.7559 C   0  0  0  0  0  0
    2.3846   -2.6743    0.1490 C   0  0  0  0  0  0
    2.3482   -3.8499    0.9192 C   0  0  0  0  0  0
    1.1637   -4.2790    1.5199 C   0  0  0  0  0  0
   -0.0091   -3.5451    1.3581 C   0  0  0  0  0  0
   -2.0218   -1.3821    1.3643 O   0  0  0  0  0  0
   -1.5047   -1.4402   -0.8832 O   0  0  0  0  0  0
    1.3829   -0.5656   -1.9579 O   0  0  0  0  0  0
    1.0340    0.3396    0.1384 O   0  0  0  0  0  0
   -2.7656   -0.8389   -1.2240 C   0  0  0  0  0  0
   -3.7799   -1.9145   -1.5215 C   0  0  0  0  0  0
   -3.5549   -2.8393   -2.5512 C   0  0  0  0  0  0
   -4.4917   -3.8370   -2.8272 C   0  0  0  0  0  0
   -5.6653   -3.9179   -2.0792 C   0  0  0  0  0  0
   -5.9019   -3.0011   -1.0567 C   0  0  0  0  0  0
   -4.9643   -2.0048   -0.7777 C   0  0  0  0  0  0
    1.0684    1.6773   -0.3932 C   0  0  0  0  0  0
    2.5066    2.1840   -0.4426 C   0  0  0  0  0  0
    2.5812    3.6105   -0.9802 C   0  0  0  0  0  0
    4.0158    4.1107   -1.0385 C   0  0  0  0  0  0
    3.7146   -2.2213   -0.4138 C   0  0  0  0  0  0
    4.4057   -1.2259    0.5210 C   0  0  0  0  0  0
    5.7178   -0.7169   -0.0737 C   0  0  0  0  0  0
    6.3655    0.3223    0.8263 C   0  0  0  0  0  0
    3.2551   -4.4363    1.0700 H   0  0  0  0  0  0
    1.1586   -5.1883    2.1198 H   0  0  0  0  0  0
   -0.9267   -3.8898    1.8319 H   0  0  0  0  0  0
   -2.6096   -0.2340   -2.1246 H   0  0  0  0  0  0
   -3.1073   -0.1520   -0.4402 H   0  0  0  0  0  0
   -2.6430   -2.7883   -3.1458 H   0  0  0  0  0  0
   -4.3073   -4.5507   -3.6281 H   0  0  0  0  0  0
   -6.3953   -4.6959   -2.2935 H   0  0  0  0  0  0
   -6.8193   -3.0629   -0.4731 H   0  0  0  0  0  0
   -5.1660   -1.2992    0.0277 H   0  0  0  0  0  0
    0.4737    2.2999    0.2835 H   0  0  0  0  0  0
    0.5870    1.7173   -1.3774 H   0  0  0  0  0  0
    3.1136    1.5163   -1.0659 H   0  0  0  0  0  0
    2.9437    2.1347    0.5627 H   0  0  0  0  0  0
    1.9915    4.2798   -0.3433 H   0  0  0  0  0  0
    2.1452    3.6522   -1.9847 H   0  0  0  0  0  0
    4.0445    5.1335   -1.4273 H   0  0  0  0  0  0
    4.6246    3.4800   -1.6944 H   0  0  0  0  0  0
    4.4708    4.1130   -0.0429 H   0  0  0  0  0  0
    3.5759   -1.7886   -1.4104 H   0  0  0  0  0  0
    4.3625   -3.0937   -0.5685 H   0  0  0  0  0  0
    4.6021   -1.7033    1.4899 H   0  0  0  0  0  0
    3.7457   -0.3747    0.7229 H   0  0  0  0  0  0
    5.5356   -0.2731   -1.0592 H   0  0  0  0  0  0
    6.4094   -1.5550   -0.2160 H   0  0  0  0  0  0
    7.3225    0.6460    0.4058 H   0  0  0  0  0  0
    6.5537   -0.0830    1.8255 H   0  0  0  0  0  0
    5.7245    1.2036    0.9292 H   0  0  0  0  0  0
  1  2  1  0  0  0
  1  9  2  0  0  0
  1 10  1  0  0  0
  2  3  2  0  0  0
  2  8  1  0  0  0
  3  4  1  0  0  0
  3  5  1  0  0  0
  4 11  2  0  0  0
  4 12  1  0  0  0
  5  6  2  0  0  0
  5 24  1  0  0  0
  6  7  1  0  0  0
  6 28  1  0  0  0
  7  8  2  0  0  0
  7 29  1  0  0  0
  8 30  1  0  0  0
 10 13  1  0  0  0
 12 20  1  0  0  0
 13 14  1  0  0  0
 13 31  1  0  0  0
 13 32  1  0  0  0
 14 15  2  0  0  0
 14 19  1  0  0  0
 15 16  1  0  0  0
 15 33  1  0  0  0
 16 17  2  0  0  0
 16 34  1  0  0  0
 17 18  1  0  0  0
 17 35  1  0  0  0
 18 19  2  0  0  0
 18 36  1  0  0  0
 19 37  1  0  0  0
 20 21  1  0  0  0
 20 38  1  0  0  0
 20 39  1  0  0  0
 21 22  1  0  0  0
 21 40  1  0  0  0
 21 41  1  0  0  0
 22 23  1  0  0  0
 22 42  1  0  0  0
 22 43  1  0  0  0
 23 44  1  0  0  0
 23 45  1  0  0  0
 23 46  1  0  0  0
 24 25  1  0  0  0
 24 47  1  0  0  0
 24 48  1  0  0  0
 25 26  1  0  0  0
 25 49  1  0  0  0
 25 50  1  0  0  0
 26 27  1  0  0  0
 26 51  1  0  0  0
 26 52  1  0  0  0
 27 53  1  0  0  0
 27 54  1  0  0  0
 27 55  1  0  0  0
M  END
>  <Name>
tox-169

>  <substance>
Dibutyl benzyl phthalate

>  <CASRN>


>  <from_NCI>
0

>  <RBA>
0.000000

>  <method>
mult GST

>  <chemical_class>
Phthalate

>  <set>
2

$$$$
tox-170
  Cerius2 12190218263D 1   1.00000                          
 Structure written by MMmdl.
 32 33  0  0  0  0  0  0  0  0999 V2000
    0.0003    0.2208    0.7325 C   0  0  0  0  0  0
    1.3767   -0.4674    0.7495 C   0  0  0  0  0  0
   -1.1750   -0.7501    0.5259 C   0  0  0  0  0  0
   -0.0761    1.4769   -0.1656 C   0  0  0  0  0  0
    1.8177   -1.2020    1.8707 C   0  0  0  0  0  0
    2.2359   -0.4100   -0.3678 C   0  0  0  0  0  0
   -2.3950   -0.4983    1.1814 C   0  0  0  0  0  0
   -1.0907   -1.8691   -0.3208 C   0  0  0  0  0  0
    0.3659    2.6841    0.2544 C   0  0  0  0  0  0
   -0.6922    1.2744   -1.5357 C   0  0  0  0  0  0
    3.0675   -1.8343    1.8711 C   0  0  0  0  0  0
    0.8615   -1.3747    3.3042 Cl  0  0  0  0  0  0
    3.4820   -1.0429   -0.3620 C   0  0  0  0  0  0
   -3.4909   -1.3474    1.0076 C   0  0  0  0  0  0
   -2.1879   -2.7181   -0.4941 C   0  0  0  0  0  0
    1.1068    2.9326    1.8072 Cl  0  0  0  0  0  0
    0.2519    4.1219   -0.7138 Cl  0  0  0  0  0  0
    3.8989   -1.7536    0.7571 C   0  0  0  0  0  0
   -3.3820   -2.4550    0.1716 C   0  0  0  0  0  0
   -4.7318   -3.5012   -0.0444 Cl  0  0  0  0  0  0
   -0.1457    0.5915    1.7560 H   0  0  0  0  0  0
    1.9508    0.1282   -1.2695 H   0  0  0  0  0  0
   -2.4996    0.3667    1.8360 H   0  0  0  0  0  0
   -0.1728   -2.0932   -0.8615 H   0  0  0  0  0  0
   -0.5086    2.1002   -2.2274 H   0  0  0  0  0  0
   -1.7772    1.1546   -1.4532 H   0  0  0  0  0  0
   -0.2784    0.3859   -2.0225 H   0  0  0  0  0  0
    3.4009   -2.3968    2.7411 H   0  0  0  0  0  0
    4.1261   -0.9803   -1.2378 H   0  0  0  0  0  0
   -4.4223   -1.1343    1.5268 H   0  0  0  0  0  0
   -2.0995   -3.5793   -1.1524 H   0  0  0  0  0  0
    4.8687   -2.2473    0.7620 H   0  0  0  0  0  0
  1  2  1  0  0  0
  1  3  1  0  0  0
  1  4  1  0  0  0
  1 21  1  0  0  0
  2  5  2  0  0  0
  2  6  1  0  0  0
  3  7  2  0  0  0
  3  8  1  0  0  0
  4  9  2  0  0  0
  4 10  1  0  0  0
  5 11  1  0  0  0
  5 12  1  0  0  0
  6 13  2  0  0  0
  6 22  1  0  0  0
  7 14  1  0  0  0
  7 23  1  0  0  0
  8 15  2  0  0  0
  8 24  1  0  0  0
  9 16  1  0  0  0
  9 17  1  0  0  0
 10 25  1  0  0  0
 10 26  1  0  0  0
 10 27  1  0  0  0
 11 18  2  0  0  0
 11 28  1  0  0  0
 13 18  1  0  0  0
 13 29  1  0  0  0
 14 19  2  0  0  0
 14 30  1  0  0  0
 15 19  1  0  0  0
 15 31  1  0  0  0
 18 32  1  0  0  0
 19 20  1  0  0  0
M  END
>  <Name>
tox-170

>  <substance>
o,p '-DDE

>  <CASRN>
3424-82-6

>  <from_NCI>
1

>  <RBA>
0.000200

>  <method>
GST-hERadef,GST-mERadef,hERa,RUC,RUC

>  <chemical_class>
Organochlorine; Diphenylalkane

>  <set>
1

$$$$
tox-171
  Cerius2 12190218263D 1   1.00000                          
 Structure written by MMmdl.
 28 29  0  0  0  0  0  0  0  0999 V2000
    1.0986    0.9317    0.0275 C   0  0  0  0  0  0
   -0.2480    1.6847   -0.0929 C   0  0  0  0  0  0
    0.9542   -0.5797   -0.2524 C   0  0  0  0  0  0
    2.0356    1.4353    1.1921 C   0  0  0  0  0  0
   -1.4278    1.3792    0.6122 C   0  0  0  0  0  0
   -0.3009    2.7672   -1.0048 C   0  0  0  0  0  0
    1.1988   -1.5839    0.6969 C   0  0  0  0  0  0
    0.5520   -0.9828   -1.5444 C   0  0  0  0  0  0
    2.3623    3.2284    1.0490 Cl  0  0  0  0  0  0
    3.6817    0.6633    1.1025 Cl  0  0  0  0  0  0
    1.4039    1.1844    2.8577 Cl  0  0  0  0  0  0
   -2.5902    2.1434    0.4237 C   0  0  0  0  0  0
   -1.5776    0.0603    1.7174 Cl  0  0  0  0  0  0
   -1.4616    3.5217   -1.1878 C   0  0  0  0  0  0
    1.0470   -2.9372    0.3700 C   0  0  0  0  0  0
    0.3998   -2.3332   -1.8714 C   0  0  0  0  0  0
   -2.6074    3.2121   -0.4694 C   0  0  0  0  0  0
    0.6484   -3.3063   -0.9107 C   0  0  0  0  0  0
    0.4622   -4.9708   -1.3060 Cl  0  0  0  0  0  0
    1.6678    1.2425   -0.8666 H   0  0  0  0  0  0
    0.5785    3.0402   -1.5899 H   0  0  0  0  0  0
    1.5019   -1.3511    1.7138 H   0  0  0  0  0  0
    0.3516   -0.2375   -2.3147 H   0  0  0  0  0  0
   -3.5000    1.9040    0.9721 H   0  0  0  0  0  0
   -1.4661    4.3508   -1.8934 H   0  0  0  0  0  0
    1.2406   -3.6937    1.1273 H   0  0  0  0  0  0
    0.0878   -2.6105   -2.8753 H   0  0  0  0  0  0
   -3.5157    3.7952   -0.6071 H   0  0  0  0  0  0
  1  2  1  0  0  0
  1  3  1  0  0  0
  1  4  1  0  0  0
  1 20  1  0  0  0
  2  5  2  0  0  0
  2  6  1  0  0  0
  3  7  2  0  0  0
  3  8  1  0  0  0
  4  9  1  0  0  0
  4 10  1  0  0  0
  4 11  1  0  0  0
  5 12  1  0  0  0
  5 13  1  0  0  0
  6 14  2  0  0  0
  6 21  1  0  0  0
  7 15  1  0  0  0
  7 22  1  0  0  0
  8 16  2  0  0  0
  8 23  1  0  0  0
 12 17  2  0  0  0
 12 24  1  0  0  0
 14 17  1  0  0  0
 14 25  1  0  0  0
 15 18  2  0  0  0
 15 26  1  0  0  0
 16 18  1  0  0  0
 16 27  1  0  0  0
 17 28  1  0  0  0
 18 19  1  0  0  0
M  END
>  <Name>
tox-171

>  <substance>
o,p '-DDT

>  <CASRN>
789-02-6

>  <from_NCI>
1

>  <RBA>
0.070000

>  <method>
GST-hERadef,GST-mERadef,hERa,hERa,hERa-FP,MCF-7 cytosol,MUC,RBC,RUC,RUC,RUC,RUC,RUC

>  <chemical_class>
Organochlorine; Diphenylalkane

>  <set>
2

$$$$
tox-172
  Cerius2 12190218263D 1   1.00000                          
 Structure written by MMmdl.
 28 29  0  0  0  0  0  0  0  0999 V2000
   -0.2532    1.0415   -0.1191 C   0  0  0  0  0  0
    1.0577    0.3877    0.3409 C   0  0  0  0  0  0
   -1.4491    0.2013    0.3512 C   0  0  0  0  0  0
   -0.2856    1.4051   -1.6304 C   0  0  0  0  0  0
    1.6448   -0.6815   -0.3565 C   0  0  0  0  0  0
    1.6840    0.8471    1.5137 C   0  0  0  0  0  0
   -1.8820   -0.9394   -0.3456 C   0  0  0  0  0  0
   -2.1216    0.5593    1.5337 C   0  0  0  0  0  0
    1.0828    2.4894   -2.0888 Cl  0  0  0  0  0  0
   -1.8025    2.2746   -2.0785 Cl  0  0  0  0  0  0
    2.8330   -1.2624    0.0973 C   0  0  0  0  0  0
    2.8714    0.2657    1.9664 C   0  0  0  0  0  0
   -2.9670   -1.6897    0.1183 C   0  0  0  0  0  0
   -3.2057   -0.1913    1.9966 C   0  0  0  0  0  0
    3.4420   -0.7858    1.2551 C   0  0  0  0  0  0
   -3.6249   -1.3121    1.2857 C   0  0  0  0  0  0
    4.9041   -1.5034    1.8120 Cl  0  0  0  0  0  0
   -4.9594   -2.2384    1.8552 Cl  0  0  0  0  0  0
   -0.3231    2.0070    0.4062 H   0  0  0  0  0  0
   -0.2224    0.5273   -2.2788 H   0  0  0  0  0  0
    1.1872   -1.0828   -1.2588 H   0  0  0  0  0  0
    1.2498    1.6658    2.0869 H   0  0  0  0  0  0
   -1.3816   -1.2659   -1.2554 H   0  0  0  0  0  0
   -1.8049    1.4303    2.1068 H   0  0  0  0  0  0
    3.2719   -2.0876   -0.4589 H   0  0  0  0  0  0
    3.3395    0.6395    2.8740 H   0  0  0  0  0  0
   -3.2872   -2.5679   -0.4377 H   0  0  0  0  0  0
   -3.7123    0.1062    2.9117 H   0  0  0  0  0  0
  1  2  1  0  0  0
  1  3  1  0  0  0
  1  4  1  0  0  0
  1 19  1  0  0  0
  2  5  2  0  0  0
  2  6  1  0  0  0
  3  7  2  0  0  0
  3  8  1  0  0  0
  4  9  1  0  0  0
  4 10  1  0  0  0
  4 20  1  0  0  0
  5 11  1  0  0  0
  5 21  1  0  0  0
  6 12  2  0  0  0
  6 22  1  0  0  0
  7 13  1  0  0  0
  7 23  1  0  0  0
  8 14  2  0  0  0
  8 24  1  0  0  0
 11 15  2  0  0  0
 11 25  1  0  0  0
 12 15  1  0  0  0
 12 26  1  0  0  0
 13 16  2  0  0  0
 13 27  1  0  0  0
 14 16  1  0  0  0
 14 28  1  0  0  0
 15 17  1  0  0  0
 16 18  1  0  0  0
M  END
>  <Name>
tox-172

>  <substance>
p,p '-DDD

>  <CASRN>
72-54-8

>  <from_NCI>
1

>  <RBA>
0.002000

>  <method>
hERa,hERa,RUC,RUC,RUC

>  <chemical_class>
Organochlorine; Diphenylalkane

>  <set>
0

$$$$
tox-173
  Cerius2 12190218263D 1   1.00000                          
 Structure written by MMmdl.
 26 27  0  0  0  0  0  0  0  0999 V2000
    0.0007    0.5737   -0.7539 C   0  0  0  0  0  0
    1.2848    0.0347   -0.2438 C   0  0  0  0  0  0
   -1.2842    0.0321   -0.2486 C   0  0  0  0  0  0
    0.0015    1.5605   -1.6806 C   0  0  0  0  0  0
    1.8812   -1.0727   -0.8624 C   0  0  0  0  0  0
    1.9083    0.6227    0.8655 C   0  0  0  0  0  0
   -1.8800    0.5799    0.8958 C   0  0  0  0  0  0
   -1.9091   -1.0367   -0.9059 C   0  0  0  0  0  0
   -1.4606    2.2528   -2.3286 Cl  0  0  0  0  0  0
    1.4647    2.2495   -2.3297 Cl  0  0  0  0  0  0
    3.0896   -1.5823   -0.3800 C   0  0  0  0  0  0
    3.1167    0.1120    1.3466 C   0  0  0  0  0  0
   -3.0893    0.0680    1.3736 C   0  0  0  0  0  0
   -3.1185   -1.5474   -0.4270 C   0  0  0  0  0  0
    3.7022   -0.9877    0.7218 C   0  0  0  0  0  0
   -3.7034   -0.9927    0.7100 C   0  0  0  0  0  0
    5.1906   -1.6164    1.3155 Cl  0  0  0  0  0  0
   -5.1931   -1.6226    1.2994 Cl  0  0  0  0  0  0
    1.4119   -1.5456   -1.7235 H   0  0  0  0  0  0
    1.4600    1.4817    1.3620 H   0  0  0  0  0  0
   -1.4095    1.4084    1.4226 H   0  0  0  0  0  0
   -1.4614   -1.4785   -1.7946 H   0  0  0  0  0  0
    3.5429   -2.4411   -0.8695 H   0  0  0  0  0  0
    3.5912    0.5780    2.2070 H   0  0  0  0  0  0
   -3.5421    0.5026    2.2616 H   0  0  0  0  0  0
   -3.5942   -2.3758   -0.9467 H   0  0  0  0  0  0
  1  2  1  0  0  0
  1  3  1  0  0  0
  1  4  2  0  0  0
  2  5  2  0  0  0
  2  6  1  0  0  0
  3  7  2  0  0  0
  3  8  1  0  0  0
  4  9  1  0  0  0
  4 10  1  0  0  0
  5 11  1  0  0  0
  5 19  1  0  0  0
  6 12  2  0  0  0
  6 20  1  0  0  0
  7 13  1  0  0  0
  7 21  1  0  0  0
  8 14  2  0  0  0
  8 22  1  0  0  0
 11 15  2  0  0  0
 11 23  1  0  0  0
 12 15  1  0  0  0
 12 24  1  0  0  0
 13 16  2  0  0  0
 13 25  1  0  0  0
 14 16  1  0  0  0
 14 26  1  0  0  0
 15 17  1  0  0  0
 16 18  1  0  0  0
M  END
>  <Name>
tox-173

>  <substance>
p,p '-DDE

>  <CASRN>
72-55-9

>  <from_NCI>
1

>  <RBA>
0.000040

>  <method>
GST-hERadef,GST-mERadef,hERa,RBC,RUC,RUC,RUC

>  <chemical_class>
Organochlorine; Diphenylalkane

>  <set>
1

$$$$
tox-174
  Cerius2 12190218263D 1   1.00000                          
 Structure written by MMmdl.
 28 29  0  0  0  0  0  0  0  0999 V2000
   -1.0837    0.6506   -1.7072 C   0  0  0  0  0  0
    0.3183    0.0145   -1.6570 C   0  0  0  0  0  0
   -1.8233    0.4619   -0.3664 C   0  0  0  0  0  0
   -1.1436    2.0571   -2.4086 C   0  0  0  0  0  0
    1.2695    0.3790   -0.6889 C   0  0  0  0  0  0
    0.6685   -0.9751   -2.5945 C   0  0  0  0  0  0
   -1.8378    1.4219    0.6569 C   0  0  0  0  0  0
   -2.4933   -0.7578   -0.1359 C   0  0  0  0  0  0
   -0.6320    1.9239   -4.1562 Cl  0  0  0  0  0  0
   -0.0914    3.3280   -1.6787 Cl  0  0  0  0  0  0
   -2.8397    2.7052   -2.4518 Cl  0  0  0  0  0  0
    2.5337   -0.2184   -0.6654 C   0  0  0  0  0  0
    1.9322   -1.5720   -2.5709 C   0  0  0  0  0  0
   -2.5155    1.1817    1.8582 C   0  0  0  0  0  0
   -3.1701   -0.9981    1.0633 C   0  0  0  0  0  0
    2.8602   -1.1902   -1.6068 C   0  0  0  0  0  0
   -3.1802   -0.0247    2.0558 C   0  0  0  0  0  0
    4.4164   -1.9250   -1.5761 Cl  0  0  0  0  0  0
   -4.0105   -0.3152    3.5350 Cl  0  0  0  0  0  0
   -1.6660    0.0116   -2.3924 H   0  0  0  0  0  0
    1.0410    1.1301    0.0652 H   0  0  0  0  0  0
   -0.0422   -1.2922   -3.3575 H   0  0  0  0  0  0
   -1.3220    2.3722    0.5565 H   0  0  0  0  0  0
   -2.4916   -1.5390   -0.8965 H   0  0  0  0  0  0
    3.2532    0.0814    0.0930 H   0  0  0  0  0  0
    2.1797   -2.3326   -3.3078 H   0  0  0  0  0  0
   -2.5131    1.9442    2.6340 H   0  0  0  0  0  0
   -3.6808   -1.9467    1.2106 H   0  0  0  0  0  0
  1  2  1  0  0  0
  1  3  1  0  0  0
  1  4  1  0  0  0
  1 20  1  0  0  0
  2  5  2  0  0  0
  2  6  1  0  0  0
  3  7  2  0  0  0
  3  8  1  0  0  0
  4  9  1  0  0  0
  4 10  1  0  0  0
  4 11  1  0  0  0
  5 12  1  0  0  0
  5 21  1  0  0  0
  6 13  2  0  0  0
  6 22  1  0  0  0
  7 14  1  0  0  0
  7 23  1  0  0  0
  8 15  2  0  0  0
  8 24  1  0  0  0
 12 16  2  0  0  0
 12 25  1  0  0  0
 13 16  1  0  0  0
 13 26  1  0  0  0
 14 17  2  0  0  0
 14 27  1  0  0  0
 15 17  1  0  0  0
 15 28  1  0  0  0
 16 18  1  0  0  0
 17 19  1  0  0  0
M  END
>  <Name>
tox-174

>  <substance>
p,p '-DDT

>  <CASRN>
50-29-3

>  <from_NCI>
1

>  <RBA>
0.006000

>  <method>
GST-hERadef,GST-mERadef,hERa,hERa-FP,RUC,RUC,RUC

>  <chemical_class>
Organochlorine; Diphenylalkane

>  <set>
1

$$$$
tox-175
  Cerius2 12190218263D 1   1.00000                          
 Structure written by MMmdl.
 37 37  0  0  0  0  0  0  0  0999 V2000
    0.3686   -1.2523    0.0088 C   0  0  0  0  0  0
    1.1062   -0.0008    0.0016 C   0  0  0  0  0  0
    0.9911   -2.7060    0.0165 C   0  0  0  0  0  0
   -1.0550   -1.2319    0.0079 C   0  0  0  0  0  0
    0.3196    1.2205   -0.0062 C   0  0  0  0  0  0
    2.3793    0.0244    0.0021 O   0  0  0  0  0  0
    0.4986   -3.4666    1.2787 C   0  0  0  0  0  0
    0.5109   -3.4726   -1.2464 C   0  0  0  0  0  0
    2.5321   -2.8515    0.0253 C   0  0  0  0  0  0
   -1.7806   -0.0579    0.0022 C   0  0  0  0  0  0
    0.8841    2.6977   -0.0166 C   0  0  0  0  0  0
   -1.1020    1.1438   -0.0044 C   0  0  0  0  0  0
    0.3613    3.4357   -1.2800 C   0  0  0  0  0  0
    0.3745    3.4472    1.2451 C   0  0  0  0  0  0
    2.4182    2.9042   -0.0266 C   0  0  0  0  0  0
   -1.6269   -2.1588    0.0118 H   0  0  0  0  0  0
    0.9379   -4.4697    1.3341 H   0  0  0  0  0  0
   -0.5874   -3.6022    1.2973 H   0  0  0  0  0  0
    0.7803   -2.9279    2.1912 H   0  0  0  0  0  0
    0.9479   -4.4773   -1.2908 H   0  0  0  0  0  0
    0.8045   -2.9403   -2.1588 H   0  0  0  0  0  0
   -0.5753   -3.6045   -1.2764 H   0  0  0  0  0  0
    2.8305   -3.9077    0.0320 H   0  0  0  0  0  0
    2.9773   -2.3989    0.9182 H   0  0  0  0  0  0
    2.9869   -2.4081   -0.8672 H   0  0  0  0  0  0
   -2.8678   -0.0794    0.0025 H   0  0  0  0  0  0
   -1.7101    2.0473   -0.0083 H   0  0  0  0  0  0
    0.7605    4.4553   -1.3378 H   0  0  0  0  0  0
   -0.7292    3.5280   -1.2984 H   0  0  0  0  0  0
    0.6638    2.9067   -2.1916 H   0  0  0  0  0  0
    0.7715    4.4685    1.2873 H   0  0  0  0  0  0
    0.6893    2.9287    2.1584 H   0  0  0  0  0  0
   -0.7161    3.5362    1.2754 H   0  0  0  0  0  0
    2.6745    3.9713   -0.0356 H   0  0  0  0  0  0
    2.8806    2.4677   -0.9186 H   0  0  0  0  0  0
    2.8906    2.4811    0.8667 H   0  0  0  0  0  0
    2.6467    0.8312   -0.0026 H   0  0  0  0  0  0
  1  2  2  0  0  0
  1  3  1  0  0  0
  1  4  1  0  0  0
  2  5  1  0  0  0
  2  6  1  0  0  0
  3  7  1  0  0  0
  3  8  1  0  0  0
  3  9  1  0  0  0
  4 10  2  0  0  0
  4 16  1  0  0  0
  5 11  1  0  0  0
  5 12  2  0  0  0
  6 37  1  0  0  0
  7 17  1  0  0  0
  7 18  1  0  0  0
  7 19  1  0  0  0
  8 20  1  0  0  0
  8 21  1  0  0  0
  8 22  1  0  0  0
  9 23  1  0  0  0
  9 24  1  0  0  0
  9 25  1  0  0  0
 10 12  1  0  0  0
 10 26  1  0  0  0
 11 13  1  0  0  0
 11 14  1  0  0  0
 11 15  1  0  0  0
 12 27  1  0  0  0
 13 28  1  0  0  0
 13 29  1  0  0  0
 13 30  1  0  0  0
 14 31  1  0  0  0
 14 32  1  0  0  0
 14 33  1  0  0  0
 15 34  1  0  0  0
 15 35  1  0  0  0
 15 36  1  0  0  0
M  END
>  <Name>
tox-175

>  <substance>
2,6-Di-tert -butylphenol

>  <CASRN>
128-39-2

>  <from_NCI>
1

>  <RBA>
0.000000

>  <method>
RUC

>  <chemical_class>
Alkylphenol

>  <set>
2

$$$$
tox-176
  Cerius2 12190218263D 1   1.00000                          
 Structure written by MMmdl.
 42 42  0  0  0  0  0  0  0  0999 V2000
    0.6527   -0.5743   -0.3033 C   0  0  0  0  0  0
   -0.5371   -0.4763   -1.0355 C   0  0  0  0  0  0
    1.2439    0.6114    0.3502 C   0  0  0  0  0  0
    1.2560   -1.8281   -0.1184 C   0  0  0  0  0  0
   -1.1539    0.8371   -1.3128 C   0  0  0  0  0  0
   -1.1166   -1.6316   -1.5826 C   0  0  0  0  0  0
    2.5729    0.6440    0.0864 O   0  0  0  0  0  0
    0.6101    1.4182    1.0119 O   0  0  0  0  0  0
    0.6741   -2.9729   -0.6658 C   0  0  0  0  0  0
   -2.4809    0.7660   -1.0463 O   0  0  0  0  0  0
   -0.5395    1.8135   -1.7122 O   0  0  0  0  0  0
   -0.5110   -2.8753   -1.3940 C   0  0  0  0  0  0
    3.2723    1.7585    0.6639 C   0  0  0  0  0  0
   -3.2040    1.9875   -1.2691 C   0  0  0  0  0  0
    4.7444    1.6377    0.2866 C   0  0  0  0  0  0
   -4.6695    1.7355   -0.9334 C   0  0  0  0  0  0
    5.5695    2.7860    0.8600 C   0  0  0  0  0  0
   -5.5187    2.9861   -1.1407 C   0  0  0  0  0  0
    7.0365    2.6609    0.4814 C   0  0  0  0  0  0
   -6.9790    2.7296   -0.8050 C   0  0  0  0  0  0
    2.1714   -1.9238    0.4633 H   0  0  0  0  0  0
   -2.0317   -1.5698   -2.1693 H   0  0  0  0  0  0
    1.1434   -3.9447   -0.5190 H   0  0  0  0  0  0
   -0.9619   -3.7700   -1.8209 H   0  0  0  0  0  0
    3.1570    1.7350    1.7538 H   0  0  0  0  0  0
    2.8545    2.6922    0.2697 H   0  0  0  0  0  0
   -3.1012    2.2844   -2.3193 H   0  0  0  0  0  0
   -2.7961    2.7735   -0.6229 H   0  0  0  0  0  0
    4.8376    1.6112   -0.8064 H   0  0  0  0  0  0
    5.1323    0.6754    0.6436 H   0  0  0  0  0  0
   -4.7494    1.3895    0.1048 H   0  0  0  0  0  0
   -5.0471    0.9125   -1.5531 H   0  0  0  0  0  0
    5.4799    2.7999    1.9524 H   0  0  0  0  0  0
    5.1831    3.7431    0.4905 H   0  0  0  0  0  0
   -5.4423    3.3199   -2.1820 H   0  0  0  0  0  0
   -5.1425    3.8004   -0.5105 H   0  0  0  0  0  0
    7.6089    3.4934    0.9024 H   0  0  0  0  0  0
    7.1639    2.6765   -0.6057 H   0  0  0  0  0  0
    7.4623    1.7279    0.8642 H   0  0  0  0  0  0
   -7.5689    3.6383   -0.9598 H   0  0  0  0  0  0
   -7.0935    2.4240    0.2399 H   0  0  0  0  0  0
   -7.3952    1.9419   -1.4412 H   0  0  0  0  0  0
  1  2  2  0  0  0
  1  3  1  0  0  0
  1  4  1  0  0  0
  2  5  1  0  0  0
  2  6  1  0  0  0
  3  7  1  0  0  0
  3  8  2  0  0  0
  4  9  2  0  0  0
  4 21  1  0  0  0
  5 10  1  0  0  0
  5 11  2  0  0  0
  6 12  2  0  0  0
  6 22  1  0  0  0
  7 13  1  0  0  0
  9 12  1  0  0  0
  9 23  1  0  0  0
 10 14  1  0  0  0
 12 24  1  0  0  0
 13 15  1  0  0  0
 13 25  1  0  0  0
 13 26  1  0  0  0
 14 16  1  0  0  0
 14 27  1  0  0  0
 14 28  1  0  0  0
 15 17  1  0  0  0
 15 29  1  0  0  0
 15 30  1  0  0  0
 16 18  1  0  0  0
 16 31  1  0  0  0
 16 32  1  0  0  0
 17 19  1  0  0  0
 17 33  1  0  0  0
 17 34  1  0  0  0
 18 20  1  0  0  0
 18 35  1  0  0  0
 18 36  1  0  0  0
 19 37  1  0  0  0
 19 38  1  0  0  0
 19 39  1  0  0  0
 20 40  1  0  0  0
 20 41  1  0  0  0
 20 42  1  0  0  0
M  END
>  <Name>
tox-176

>  <substance>
Dibutyl phthalate

>  <CASRN>
84-74-2

>  <from_NCI>
1

>  <RBA>
0.001000

>  <method>
hERa-FP,RBC,RUC,RUC,RUC

>  <chemical_class>
Phthalate

>  <set>
1

$$$$
tox-177
  Cerius2 12190218263D 1   1.00000                          
 Structure written by MMmdl.
 22 23  0  0  0  0  0  0  0  0999 V2000
   -0.4329   -0.2452   -0.0106 C   0  0  0  0  0  0
    1.0371   -0.2272   -0.0236 C   0  0  0  0  0  0
   -1.1449   -1.1712   -0.7902 C   0  0  0  0  0  0
   -1.1568    0.6530    0.7908 C   0  0  0  0  0  0
    1.7865    0.7364   -0.7260 C   0  0  0  0  0  0
    1.7392   -1.2139    0.6943 C   0  0  0  0  0  0
   -2.5428   -1.1939   -0.7758 C   0  0  0  0  0  0
   -2.5547    0.6318    0.8064 C   0  0  0  0  0  0
    3.1859    0.7115   -0.7031 C   0  0  0  0  0  0
    1.0261    1.9811   -1.6607 Cl  0  0  0  0  0  0
    3.1361   -1.2368    0.7156 C   0  0  0  0  0  0
   -3.2416   -0.2915    0.0221 C   0  0  0  0  0  0
    3.8590   -0.2739    0.0179 C   0  0  0  0  0  0
   -4.9625   -0.3186    0.0405 Cl  0  0  0  0  0  0
   -0.6116   -1.8827   -1.4199 H   0  0  0  0  0  0
   -0.6328    1.3790    1.4116 H   0  0  0  0  0  0
    1.1933   -1.9763    1.2503 H   0  0  0  0  0  0
   -3.0736   -1.9181   -1.3894 H   0  0  0  0  0  0
   -3.0946    1.3377    1.4331 H   0  0  0  0  0  0
    3.7602    1.4576   -1.2485 H   0  0  0  0  0  0
    3.6581   -2.0084    1.2792 H   0  0  0  0  0  0
    4.9473   -0.2906    0.0333 H   0  0  0  0  0  0
  1  2  1  0  0  0
  1  3  2  0  0  0
  1  4  1  0  0  0
  2  5  2  0  0  0
  2  6  1  0  0  0
  3  7  1  0  0  0
  3 15  1  0  0  0
  4  8  2  0  0  0
  4 16  1  0  0  0
  5  9  1  0  0  0
  5 10  1  0  0  0
  6 11  2  0  0  0
  6 17  1  0  0  0
  7 12  2  0  0  0
  7 18  1  0  0  0
  8 12  1  0  0  0
  8 19  1  0  0  0
  9 13  2  0  0  0
  9 20  1  0  0  0
 11 13  1  0  0  0
 11 21  1  0  0  0
 12 14  1  0  0  0
 13 22  1  0  0  0
M  END
>  <Name>
tox-177

>  <substance>
2,4'-Dichlorobiphenyl

>  <CASRN>
34883-43-7

>  <from_NCI>
1

>  <RBA>
0.000200

>  <method>
RUC

>  <chemical_class>
Polychlorinated biphenyl

>  <set>
1

$$$$
tox-178
  Cerius2 12190218263D 1   1.00000                          
 Structure written by MMmdl.
 22 23  0  0  0  0  0  0  0  0999 V2000
    0.7288    0.0364   -0.0394 C   0  0  0  0  0  0
   -0.7411    0.0211   -0.0145 C   0  0  0  0  0  0
    1.4747    1.0244   -0.7126 C   0  0  0  0  0  0
    1.4324   -0.9791    0.6371 C   0  0  0  0  0  0
   -1.4621   -0.8756   -0.8190 C   0  0  0  0  0  0
   -1.4564    0.8895    0.8255 C   0  0  0  0  0  0
    2.8744    0.9960   -0.7026 C   0  0  0  0  0  0
    0.7105    2.3042   -1.5943 Cl  0  0  0  0  0  0
    2.8278   -1.0012    0.6429 C   0  0  0  0  0  0
   -2.8587   -0.8976   -0.7901 C   0  0  0  0  0  0
   -2.8530    0.8672    0.8542 C   0  0  0  0  0  0
    3.5516   -0.0173   -0.0235 C   0  0  0  0  0  0
    3.6595   -2.2540    1.4808 Cl  0  0  0  0  0  0
   -3.5531   -0.0259    0.0459 C   0  0  0  0  0  0
    0.8817   -1.7554    1.1663 H   0  0  0  0  0  0
   -0.9366   -1.5646   -1.4796 H   0  0  0  0  0  0
   -0.9261    1.5927    1.4669 H   0  0  0  0  0  0
    3.4460    1.7604   -1.2248 H   0  0  0  0  0  0
   -3.4041   -1.5970   -1.4214 H   0  0  0  0  0  0
   -3.3937    1.5478    1.5095 H   0  0  0  0  0  0
    4.6389   -0.0303   -0.0222 H   0  0  0  0  0  0
   -4.6414   -0.0433    0.0684 H   0  0  0  0  0  0
  1  2  1  0  0  0
  1  3  2  0  0  0
  1  4  1  0  0  0
  2  5  2  0  0  0
  2  6  1  0  0  0
  3  7  1  0  0  0
  3  8  1  0  0  0
  4  9  2  0  0  0
  4 15  1  0  0  0
  5 10  1  0  0  0
  5 16  1  0  0  0
  6 11  2  0  0  0
  6 17  1  0  0  0
  7 12  2  0  0  0
  7 18  1  0  0  0
  9 12  1  0  0  0
  9 13  1  0  0  0
 10 14  2  0  0  0
 10 19  1  0  0  0
 11 14  1  0  0  0
 11 20  1  0  0  0
 12 21  1  0  0  0
 14 22  1  0  0  0
M  END
>  <Name>
tox-178

>  <substance>
2,5-Dichlorobiphenyl

>  <CASRN>
34883-39-1

>  <from_NCI>
1

>  <RBA>
0.000000

>  <method>
hERa

>  <chemical_class>
Polychlorinated biphenyl

>  <set>
1

$$$$
tox-179
  Cerius2 12190218263D 1   1.00000                          
 Structure written by MMmdl.
 22 23  0  0  0  0  0  0  0  0999 V2000
    0.3943   -0.2976    0.0138 C   0  0  0  0  0  0
   -0.9535    0.3015   -0.0053 C   0  0  0  0  0  0
    1.5145    0.4186   -0.4449 C   0  0  0  0  0  0
    0.6020   -1.6030    0.4905 C   0  0  0  0  0  0
   -1.1836    1.5914    0.5045 C   0  0  0  0  0  0
   -2.0526   -0.3976   -0.5344 C   0  0  0  0  0  0
    2.7957   -0.1476   -0.4283 C   0  0  0  0  0  0
    1.8794   -2.1732    0.5100 C   0  0  0  0  0  0
   -2.4609    2.1600    0.4864 C   0  0  0  0  0  0
   -3.3304    0.1697   -0.5538 C   0  0  0  0  0  0
    2.9786   -1.4475    0.0509 C   0  0  0  0  0  0
    4.1091    0.8127   -1.0164 Cl  0  0  0  0  0  0
   -3.5338    1.4486   -0.0432 C   0  0  0  0  0  0
    4.5300   -2.2083    0.1012 Cl  0  0  0  0  0  0
    1.3869    1.4288   -0.8314 H   0  0  0  0  0  0
   -0.2353   -2.1918    0.8655 H   0  0  0  0  0  0
   -0.3648    2.1678    0.9348 H   0  0  0  0  0  0
   -1.9213   -1.3964   -0.9503 H   0  0  0  0  0  0
    2.0033   -3.1857    0.8885 H   0  0  0  0  0  0
   -2.6156    3.1596    0.8890 H   0  0  0  0  0  0
   -4.1661   -0.3896   -0.9709 H   0  0  0  0  0  0
   -4.5283    1.8908   -0.0578 H   0  0  0  0  0  0
  1  2  1  0  0  0
  1  3  2  0  0  0
  1  4  1  0  0  0
  2  5  2  0  0  0
  2  6  1  0  0  0
  3  7  1  0  0  0
  3 15  1  0  0  0
  4  8  2  0  0  0
  4 16  1  0  0  0
  5  9  1  0  0  0
  5 17  1  0  0  0
  6 10  2  0  0  0
  6 18  1  0  0  0
  7 11  2  0  0  0
  7 12  1  0  0  0
  8 11  1  0  0  0
  8 19  1  0  0  0
  9 13  2  0  0  0
  9 20  1  0  0  0
 10 13  1  0  0  0
 10 21  1  0  0  0
 11 14  1  0  0  0
 13 22  1  0  0  0
M  END
>  <Name>
tox-179

>  <substance>
3,4-Dichlorobiphenyl

>  <CASRN>
2974-92-7

>  <from_NCI>
1

>  <RBA>
0.000000

>  <method>
hERa

>  <chemical_class>
Polychlorinated biphenyl

>  <set>
0

$$$$
tox-180
  Cerius2 12190218263D 1   1.00000                          
 Structure written by MMmdl.
 22 23  0  0  0  0  0  0  0  0999 V2000
    0.7379   -0.0001   -0.0064 C   0  0  0  0  0  0
   -0.7371   -0.0002   -0.0066 C   0  0  0  0  0  0
    1.4640    1.1176   -0.4537 C   0  0  0  0  0  0
    1.4639   -1.1178    0.4411 C   0  0  0  0  0  0
   -1.4642   -1.0741   -0.5494 C   0  0  0  0  0  0
   -1.4643    1.0738    0.5360 C   0  0  0  0  0  0
    2.8610    1.1122   -0.4516 C   0  0  0  0  0  0
    2.8610   -1.1122    0.4396 C   0  0  0  0  0  0
   -2.8624   -1.0747   -0.5502 C   0  0  0  0  0  0
   -2.8625    1.0744    0.5365 C   0  0  0  0  0  0
    3.5666    0.0001   -0.0058 C   0  0  0  0  0  0
    3.7186    2.4981   -1.0097 Cl  0  0  0  0  0  0
    3.7185   -2.4979    0.9981 Cl  0  0  0  0  0  0
   -3.5609   -0.0001   -0.0069 C   0  0  0  0  0  0
    0.9367    1.9981   -0.8179 H   0  0  0  0  0  0
    0.9366   -1.9983    0.8051 H   0  0  0  0  0  0
   -0.9443   -1.9241   -0.9909 H   0  0  0  0  0  0
   -0.9445    1.9238    0.9776 H   0  0  0  0  0  0
   -3.4044   -1.9163   -0.9782 H   0  0  0  0  0  0
   -3.4045    1.9159    0.9646 H   0  0  0  0  0  0
    4.6528    0.0002   -0.0055 H   0  0  0  0  0  0
   -4.6494   -0.0001   -0.0070 H   0  0  0  0  0  0
  1  2  1  0  0  0
  1  3  2  0  0  0
  1  4  1  0  0  0
  2  5  2  0  0  0
  2  6  1  0  0  0
  3  7  1  0  0  0
  3 15  1  0  0  0
  4  8  2  0  0  0
  4 16  1  0  0  0
  5  9  1  0  0  0
  5 17  1  0  0  0
  6 10  2  0  0  0
  6 18  1  0  0  0
  7 11  2  0  0  0
  7 12  1  0  0  0
  8 11  1  0  0  0
  8 13  1  0  0  0
  9 14  2  0  0  0
  9 19  1  0  0  0
 10 14  1  0  0  0
 10 20  1  0  0  0
 11 21  1  0  0  0
 14 22  1  0  0  0
M  END
>  <Name>
tox-180

>  <substance>
3,5-Dichlorobiphenyl

>  <CASRN>
34883-41-5

>  <from_NCI>
1

>  <RBA>
0.000000

>  <method>
hERa

>  <chemical_class>
Polychlorinated biphenyl

>  <set>
2

$$$$
tox-181
  Cerius2 12190218263D 1   1.00000                          
 Structure written by MMmdl.
 22 23  0  0  0  0  0  0  0  0999 V2000
   -0.7376   -0.0002    0.0115 C   0  0  0  0  0  0
    0.7376   -0.0001    0.0114 C   0  0  0  0  0  0
   -1.4649    1.0997    0.5011 C   0  0  0  0  0  0
   -1.4649   -1.0999   -0.4783 C   0  0  0  0  0  0
    1.4650   -1.0999    0.5009 C   0  0  0  0  0  0
    1.4648    1.0997   -0.4785 C   0  0  0  0  0  0
   -2.8643    1.1018    0.5018 C   0  0  0  0  0  0
   -2.8643   -1.1015   -0.4798 C   0  0  0  0  0  0
    2.8644   -1.1017    0.5017 C   0  0  0  0  0  0
    2.8642    1.1016   -0.4799 C   0  0  0  0  0  0
   -3.5581    0.0002    0.0108 C   0  0  0  0  0  0
    3.5581   -0.0001    0.0108 C   0  0  0  0  0  0
   -5.2790    0.0006    0.0101 Cl  0  0  0  0  0  0
    5.2790    0.0000    0.0104 Cl  0  0  0  0  0  0
   -0.9444    1.9700    0.9004 H   0  0  0  0  0  0
   -0.9445   -1.9703   -0.8775 H   0  0  0  0  0  0
    0.9447   -1.9703    0.9003 H   0  0  0  0  0  0
    0.9442    1.9700   -0.8777 H   0  0  0  0  0  0
   -3.3985    1.9662    0.8892 H   0  0  0  0  0  0
   -3.3985   -1.9657   -0.8677 H   0  0  0  0  0  0
    3.3988   -1.9661    0.8892 H   0  0  0  0  0  0
    3.3983    1.9659   -0.8677 H   0  0  0  0  0  0
  1  2  1  0  0  0
  1  3  2  0  0  0
  1  4  1  0  0  0
  2  5  2  0  0  0
  2  6  1  0  0  0
  3  7  1  0  0  0
  3 15  1  0  0  0
  4  8  2  0  0  0
  4 16  1  0  0  0
  5  9  1  0  0  0
  5 17  1  0  0  0
  6 10  2  0  0  0
  6 18  1  0  0  0
  7 11  2  0  0  0
  7 19  1  0  0  0
  8 11  1  0  0  0
  8 20  1  0  0  0
  9 12  2  0  0  0
  9 21  1  0  0  0
 10 12  1  0  0  0
 10 22  1  0  0  0
 11 13  1  0  0  0
 12 14  1  0  0  0
M  END
>  <Name>
tox-181

>  <substance>
4,4'-Dichlorobiphenyl

>  <CASRN>
2050-68-2

>  <from_NCI>
1

>  <RBA>
0.000000

>  <method>
RUC

>  <chemical_class>
Polychlorinated biphenyl

>  <set>
1

$$$$
tox-182
  Cerius2 12190218263D 1   1.00000                          
 Structure written by MMmdl.
 23 24  0  0  0  0  0  0  0  0999 V2000
    2.1144    3.6758    1.6699 Cl  0  0  0  0  0  0
    0.9378    2.8398    0.7311 C   0  0  0  0  0  0
   -0.0333    3.5594    0.0420 C   0  0  0  0  0  0
   -0.9905    2.8788   -0.7114 C   0  0  0  0  0  0
   -0.9751    1.4791   -0.7770 C   0  0  0  0  0  0
   -2.2187    0.7205   -1.7168 Cl  0  0  0  0  0  0
    0.0076    0.7356   -0.0905 C   0  0  0  0  0  0
    0.9603    1.4457    0.6706 C   0  0  0  0  0  0
    0.0523   -0.7515   -0.0964 C   0  0  0  0  0  0
   -0.8360   -1.4185    0.7860 C   0  0  0  0  0  0
   -0.8710   -2.8052    0.8715 C   0  0  0  0  0  0
   -0.0146   -3.5480    0.0783 C   0  0  0  0  0  0
    0.8717   -2.8993   -0.7936 C   0  0  0  0  0  0
    0.9576   -1.4927   -0.9284 C   0  0  0  0  0  0
    1.7934   -0.9746   -1.7457 O   0  0  0  0  0  0
   -0.0567    4.6457    0.0867 H   0  0  0  0  0  0
   -1.7505    3.4477   -1.2431 H   0  0  0  0  0  0
    1.7246    0.8951    1.2167 H   0  0  0  0  0  0
   -1.5112   -0.8394    1.4166 H   0  0  0  0  0  0
   -1.5608   -3.2978    1.5529 H   0  0  0  0  0  0
   -0.0251   -4.6353    0.1293 H   0  0  0  0  0  0
    1.5279   -3.5353   -1.3964 H   0  0  0  0  0  0
    2.2288   -1.5921   -2.1352 H   0  0  0  0  0  0
  1  2  1  0  0  0
  2  3  2  0  0  0
  2  8  1  0  0  0
  3  4  1  0  0  0
  3 16  1  0  0  0
  4  5  2  0  0  0
  4 17  1  0  0  0
  5  6  1  0  0  0
  5  7  1  0  0  0
  7  8  2  0  0  0
  7  9  1  0  0  0
  8 18  1  0  0  0
  9 10  2  0  0  0
  9 14  1  0  0  0
 10 11  1  0  0  0
 10 19  1  0  0  0
 11 12  2  0  0  0
 11 20  1  0  0  0
 12 13  1  0  0  0
 12 21  1  0  0  0
 13 14  2  0  0  0
 13 22  1  0  0  0
 14 15  1  0  0  0
 15 23  1  0  0  0
M  END
>  <Name>
tox-182

>  <substance>
2,5-Dichloro-2'-biphenylol

>  <CASRN>
53905-30-9

>  <from_NCI>
1

>  <RBA>
0.000000

>  <method>
hERa

>  <chemical_class>
Polychlorinated biphenyl

>  <set>
1

$$$$
tox-183
  Cerius2 12190218263D 1   1.00000                          
 Structure written by MMmdl.
 23 24  0  0  0  0  0  0  0  0999 V2000
    2.2854    3.6375    1.4575 Cl  0  0  0  0  0  0
    1.0139    2.8177    0.6361 C   0  0  0  0  0  0
    0.0234    3.5509   -0.0091 C   0  0  0  0  0  0
   -1.0052    2.8830   -0.6738 C   0  0  0  0  0  0
   -1.0433    1.4830   -0.6909 C   0  0  0  0  0  0
   -2.3447    0.7383   -1.5583 Cl  0  0  0  0  0  0
   -0.0486    0.7257   -0.0389 C   0  0  0  0  0  0
    0.9825    1.4223    0.6232 C   0  0  0  0  0  0
   -0.0409   -0.7473   -0.0151 C   0  0  0  0  0  0
   -0.9576   -1.4576    0.7640 C   0  0  0  0  0  0
   -0.9206   -2.8471    0.7831 C   0  0  0  0  0  0
    0.0378   -3.5370    0.0265 C   0  0  0  0  0  0
    0.9954   -2.8887   -0.7756 C   0  0  0  0  0  0
    0.9139   -1.4779   -0.7614 C   0  0  0  0  0  0
    1.8635   -3.5216   -1.4568 O   0  0  0  0  0  0
    0.0429    4.6381   -0.0026 H   0  0  0  0  0  0
   -1.7747    3.4623   -1.1800 H   0  0  0  0  0  0
    1.7641    0.8649    1.1376 H   0  0  0  0  0  0
   -1.7027   -0.9346    1.3610 H   0  0  0  0  0  0
   -1.6349   -3.4031    1.3878 H   0  0  0  0  0  0
    0.0253   -4.6297    0.0766 H   0  0  0  0  0  0
    1.6286   -0.9083   -1.3642 H   0  0  0  0  0  0
    2.3537   -2.9678   -1.8757 H   0  0  0  0  0  0
  1  2  1  0  0  0
  2  3  2  0  0  0
  2  8  1  0  0  0
  3  4  1  0  0  0
  3 16  1  0  0  0
  4  5  2  0  0  0
  4 17  1  0  0  0
  5  6  1  0  0  0
  5  7  1  0  0  0
  7  8  2  0  0  0
  7  9  1  0  0  0
  8 18  1  0  0  0
  9 10  2  0  0  0
  9 14  1  0  0  0
 10 11  1  0  0  0
 10 19  1  0  0  0
 11 12  2  0  0  0
 11 20  1  0  0  0
 12 13  1  0  0  0
 12 21  1  0  0  0
 13 14  2  0  0  0
 13 15  1  0  0  0
 14 22  1  0  0  0
 15 23  1  0  0  0
M  END
>  <Name>
tox-183

>  <substance>
2,5-Dichloro-3'-biphenylol

>  <CASRN>
53905-29-6

>  <from_NCI>
1

>  <RBA>
0.002000

>  <method>
hERa

>  <chemical_class>
Polychlorinated biphenyl

>  <set>
0

$$$$
tox-184
  Cerius2 12190218263D 1   1.00000                          
 Structure written by MMmdl.
 23 24  0  0  0  0  0  0  0  0999 V2000
   -4.1669    0.2398    1.4659 Cl  0  0  0  0  0  0
   -2.8345   -0.4776    0.6452 C   0  0  0  0  0  0
   -2.9950   -1.7039    0.0083 C   0  0  0  0  0  0
   -1.9132   -2.2814   -0.6568 C   0  0  0  0  0  0
   -0.6722   -1.6330   -0.6824 C   0  0  0  0  0  0
    0.6096   -2.4099   -1.5503 Cl  0  0  0  0  0  0
   -0.4929   -0.3919   -0.0385 C   0  0  0  0  0  0
   -1.6005    0.1744    0.6239 C   0  0  0  0  0  0
    0.7875    0.3319   -0.0269 C   0  0  0  0  0  0
    1.8517   -0.0847    0.7756 C   0  0  0  0  0  0
    3.0655    0.6270    0.7917 C   0  0  0  0  0  0
    3.2912    1.7843    0.0227 C   0  0  0  0  0  0
    4.3911    2.4222    0.0445 O   0  0  0  0  0  0
    2.1974    2.1773   -0.7712 C   0  0  0  0  0  0
    0.9760    1.4792   -0.8007 C   0  0  0  0  0  0
   -3.9542   -2.2161    0.0216 H   0  0  0  0  0  0
   -2.0463   -3.2386   -1.1568 H   0  0  0  0  0  0
   -1.4925    1.1320    1.1313 H   0  0  0  0  0  0
    1.7540   -0.9689    1.4047 H   0  0  0  0  0  0
    3.8594    0.2471    1.4414 H   0  0  0  0  0  0
    2.2804    3.0669   -1.4024 H   0  0  0  0  0  0
    0.1763    1.8490   -1.4417 H   0  0  0  0  0  0
    4.3423    3.0891   -0.4803 H   0  0  0  0  0  0
  1  2  1  0  0  0
  2  3  2  0  0  0
  2  8  1  0  0  0
  3  4  1  0  0  0
  3 16  1  0  0  0
  4  5  2  0  0  0
  4 17  1  0  0  0
  5  6  1  0  0  0
  5  7  1  0  0  0
  7  8  2  0  0  0
  7  9  1  0  0  0
  8 18  1  0  0  0
  9 10  2  0  0  0
  9 15  1  0  0  0
 10 11  1  0  0  0
 10 19  1  0  0  0
 11 12  2  0  0  0
 11 20  1  0  0  0
 12 13  1  0  0  0
 12 14  1  0  0  0
 13 23  1  0  0  0
 14 15  2  0  0  0
 14 21  1  0  0  0
 15 22  1  0  0  0
M  END
>  <Name>
tox-184

>  <substance>
2',5'-Dichloro-4-biphenylol

>  <CASRN>
53905-28-5

>  <from_NCI>
1

>  <RBA>
0.200000

>  <method>
hERa,MUC,MUC,RUC

>  <chemical_class>
Polychlorinated biphenyl

>  <set>
0

$$$$
tox-185
  Cerius2 12190218263D 1   1.00000                          
 Structure written by MMmdl.
 23 24  0  0  0  0  0  0  0  0999 V2000
   -0.6193    0.0000   -0.0058 C   0  0  0  0  0  0
   -1.3437   -0.7543   -0.9318 C   0  0  0  0  0  0
   -2.7506   -0.7475   -0.9232 C   0  0  0  0  0  0
   -3.5133   -0.0001   -0.0053 C   0  0  0  0  0  0
   -2.7504    0.7473    0.9122 C   0  0  0  0  0  0
   -1.3435    0.7542    0.9204 C   0  0  0  0  0  0
    0.8544    0.0000   -0.0060 C   0  0  0  0  0  0
    1.5906    0.9337   -0.7672 C   0  0  0  0  0  0
    2.9915    0.9322   -0.7661 C   0  0  0  0  0  0
    3.6915    0.0001   -0.0064 C   0  0  0  0  0  0
    2.9918   -0.9320    0.7536 C   0  0  0  0  0  0
    1.5908   -0.9335    0.7550 C   0  0  0  0  0  0
   -4.7851   -0.0002   -0.0051 O   0  0  0  0  0  0
    0.8121   -2.1352    1.7348 Cl  0  0  0  0  0  0
    0.8116    2.1353   -1.7468 Cl  0  0  0  0  0  0
   -0.8259   -1.3595   -1.6750 H   0  0  0  0  0  0
   -3.2583   -1.3594   -1.6744 H   0  0  0  0  0  0
   -3.2579    1.3592    1.6636 H   0  0  0  0  0  0
   -0.8255    1.3595    1.6635 H   0  0  0  0  0  0
    3.5447    1.6586   -1.3585 H   0  0  0  0  0  0
    4.7798    0.0001   -0.0065 H   0  0  0  0  0  0
    3.5452   -1.6584    1.3458 H   0  0  0  0  0  0
   -5.0684    0.5058    0.6163 H   0  0  0  0  0  0
  1  2  2  0  0  0
  1  6  1  0  0  0
  1  7  1  0  0  0
  2  3  1  0  0  0
  2 16  1  0  0  0
  3  4  2  0  0  0
  3 17  1  0  0  0
  4  5  1  0  0  0
  4 13  1  0  0  0
  5  6  2  0  0  0
  5 18  1  0  0  0
  6 19  1  0  0  0
  7  8  2  0  0  0
  7 12  1  0  0  0
  8  9  1  0  0  0
  8 15  1  0  0  0
  9 10  2  0  0  0
  9 20  1  0  0  0
 10 11  1  0  0  0
 10 21  1  0  0  0
 11 12  2  0  0  0
 11 22  1  0  0  0
 12 14  1  0  0  0
 13 23  1  0  0  0
M  END
>  <Name>
tox-185

>  <substance>
2,6-Dichloro-4'-biphenylol

>  <CASRN>
79881-33-7

>  <from_NCI>
1

>  <RBA>
0.300000

>  <method>
MUC

>  <chemical_class>
Polychlorinated biphenyl

>  <set>
0

$$$$
tox-186
  Cerius2 12190218263D 1   1.00000                          
 Structure written by MMmdl.
 23 24  0  0  0  0  0  0  0  0999 V2000
    0.4545    0.0721   -0.4168 C   0  0  0  0  0  0
    1.1626    1.1164    0.2032 C   0  0  0  0  0  0
    2.5624    1.1510    0.1854 C   0  0  0  0  0  0
    3.2780    0.1378   -0.4594 C   0  0  0  0  0  0
    2.5899   -0.9040   -1.0827 C   0  0  0  0  0  0
    1.1918   -0.9344   -1.0613 C   0  0  0  0  0  0
   -1.0198    0.0485   -0.4056 C   0  0  0  0  0  0
   -1.7603   -1.0057    0.1609 C   0  0  0  0  0  0
   -3.1578   -1.0011    0.1511 C   0  0  0  0  0  0
   -3.8446    0.0651   -0.4270 C   0  0  0  0  0  0
   -3.1368    1.1225   -0.9916 C   0  0  0  0  0  0
   -1.7390    1.1137   -0.9800 C   0  0  0  0  0  0
   -1.1034   -2.0543    0.7512 O   0  0  0  0  0  0
    5.0056    0.1179   -0.5212 Cl  0  0  0  0  0  0
    3.3462    2.4738    0.9784 Cl  0  0  0  0  0  0
    0.6152    1.9088    0.7118 H   0  0  0  0  0  0
    3.1310   -1.6998   -1.5901 H   0  0  0  0  0  0
    0.6764   -1.7566   -1.5577 H   0  0  0  0  0  0
   -3.7254   -1.8179    0.5918 H   0  0  0  0  0  0
   -4.9331    0.0715   -0.4357 H   0  0  0  0  0  0
   -3.6710    1.9563   -1.4442 H   0  0  0  0  0  0
   -1.2089    1.9500   -1.4357 H   0  0  0  0  0  0
   -1.7678   -2.6878    1.0943 H   0  0  0  0  0  0
  1  2  2  0  0  0
  1  6  1  0  0  0
  1  7  1  0  0  0
  2  3  1  0  0  0
  2 16  1  0  0  0
  3  4  2  0  0  0
  3 15  1  0  0  0
  4  5  1  0  0  0
  4 14  1  0  0  0
  5  6  2  0  0  0
  5 17  1  0  0  0
  6 18  1  0  0  0
  7  8  2  0  0  0
  7 12  1  0  0  0
  8  9  1  0  0  0
  8 13  1  0  0  0
  9 10  2  0  0  0
  9 19  1  0  0  0
 10 11  1  0  0  0
 10 20  1  0  0  0
 11 12  2  0  0  0
 11 21  1  0  0  0
 12 22  1  0  0  0
 13 23  1  0  0  0
M  END
>  <Name>
tox-186

>  <substance>
3,4-Dichloro-2'-biphenylol

>  <CASRN>
209613-97-8

>  <from_NCI>
0

>  <RBA>
0.000000

>  <method>
hERa

>  <chemical_class>
Polychlorinated biphenyl

>  <set>
1

$$$$
tox-187
  Cerius2 12190218263D 1   1.00000                          
 Structure written by MMmdl.
 23 24  0  0  0  0  0  0  0  0999 V2000
    0.7354   -0.3816   -0.4151 C   0  0  0  0  0  0
    1.9077    0.2207    0.0757 C   0  0  0  0  0  0
    3.1309   -0.4622    0.0745 C   0  0  0  0  0  0
    3.2018   -1.7667   -0.4213 C   0  0  0  0  0  0
    2.0493   -2.3805   -0.9122 C   0  0  0  0  0  0
    0.8303   -1.6940   -0.9080 C   0  0  0  0  0  0
   -0.5509    0.3403   -0.4122 C   0  0  0  0  0  0
   -1.7197   -0.2597    0.0880 C   0  0  0  0  0  0
   -2.9309    0.4303    0.0875 C   0  0  0  0  0  0
   -3.0152    1.7257   -0.4069 C   0  0  0  0  0  0
   -1.8686    2.3382   -0.9076 C   0  0  0  0  0  0
   -0.6495    1.6522   -0.9097 C   0  0  0  0  0  0
   -4.0289   -0.2059    0.5891 O   0  0  0  0  0  0
    4.6764   -2.6681   -0.4544 Cl  0  0  0  0  0  0
    4.5157    0.3632    0.7023 Cl  0  0  0  0  0  0
    1.8670    1.2332    0.4752 H   0  0  0  0  0  0
    2.0863   -3.3948   -1.3041 H   0  0  0  0  0  0
   -0.0502   -2.1971   -1.3079 H   0  0  0  0  0  0
   -1.6887   -1.2702    0.4923 H   0  0  0  0  0  0
   -3.9569    2.2693   -0.4106 H   0  0  0  0  0  0
   -1.9207    3.3522   -1.3004 H   0  0  0  0  0  0
    0.2279    2.1541   -1.3177 H   0  0  0  0  0  0
   -4.7964    0.4018    0.5215 H   0  0  0  0  0  0
  1  2  2  0  0  0
  1  6  1  0  0  0
  1  7  1  0  0  0
  2  3  1  0  0  0
  2 16  1  0  0  0
  3  4  2  0  0  0
  3 15  1  0  0  0
  4  5  1  0  0  0
  4 14  1  0  0  0
  5  6  2  0  0  0
  5 17  1  0  0  0
  6 18  1  0  0  0
  7  8  2  0  0  0
  7 12  1  0  0  0
  8  9  1  0  0  0
  8 19  1  0  0  0
  9 10  2  0  0  0
  9 13  1  0  0  0
 10 11  1  0  0  0
 10 20  1  0  0  0
 11 12  2  0  0  0
 11 21  1  0  0  0
 12 22  1  0  0  0
 13 23  1  0  0  0
M  END
>  <Name>
tox-187

>  <substance>
3,4-Dichloro-3'-biphenylol

>  <CASRN>
14962-34-6

>  <from_NCI>
0

>  <RBA>
0.000000

>  <method>
hERa

>  <chemical_class>
Polychlorinated biphenyl

>  <set>
2

$$$$
tox-188
  Cerius2 12190218263D 1   1.00000                          
 Structure written by MMmdl.
 23 24  0  0  0  0  0  0  0  0999 V2000
    0.7032   -0.2715   -0.3846 C   0  0  0  0  0  0
    1.4182    0.8473   -0.8481 C   0  0  0  0  0  0
    2.8190    0.8608   -0.8594 C   0  0  0  0  0  0
    3.5318   -0.2513   -0.4037 C   0  0  0  0  0  0
    2.8396   -1.3702    0.0599 C   0  0  0  0  0  0
    1.4406   -1.3784    0.0683 C   0  0  0  0  0  0
   -0.7718   -0.2828   -0.3747 C   0  0  0  0  0  0
   -1.4941   -1.3692   -0.9001 C   0  0  0  0  0  0
   -2.8926   -1.3802   -0.8921 C   0  0  0  0  0  0
   -3.5858   -0.3029   -0.3569 C   0  0  0  0  0  0
   -2.9034    0.7856    0.1706 C   0  0  0  0  0  0
   -1.5041    0.7929    0.1601 C   0  0  0  0  0  0
   -4.9483   -0.3478   -0.3658 O   0  0  0  0  0  0
    5.2595   -0.3038   -0.3883 Cl  0  0  0  0  0  0
    3.6067    2.2827   -1.4517 Cl  0  0  0  0  0  0
    0.8773    1.7179   -1.2166 H   0  0  0  0  0  0
    3.3781   -2.2442    0.4204 H   0  0  0  0  0  0
    0.9290   -2.2637    0.4460 H   0  0  0  0  0  0
   -0.9704   -2.2206   -1.3342 H   0  0  0  0  0  0
   -3.4295   -2.2305   -1.3066 H   0  0  0  0  0  0
   -3.4361    1.6337    0.5946 H   0  0  0  0  0  0
   -0.9870    1.6516    0.5882 H   0  0  0  0  0  0
   -5.2877    0.4777    0.0418 H   0  0  0  0  0  0
  1  2  2  0  0  0
  1  6  1  0  0  0
  1  7  1  0  0  0
  2  3  1  0  0  0
  2 16  1  0  0  0
  3  4  2  0  0  0
  3 15  1  0  0  0
  4  5  1  0  0  0
  4 14  1  0  0  0
  5  6  2  0  0  0
  5 17  1  0  0  0
  6 18  1  0  0  0
  7  8  2  0  0  0
  7 12  1  0  0  0
  8  9  1  0  0  0
  8 19  1  0  0  0
  9 10  2  0  0  0
  9 20  1  0  0  0
 10 11  1  0  0  0
 10 13  1  0  0  0
 11 12  2  0  0  0
 11 21  1  0  0  0
 12 22  1  0  0  0
 13 23  1  0  0  0
M  END
>  <Name>
tox-188

>  <substance>
3,4-Dichloro-4'-biphenylol

>  <CASRN>
53890-77-0

>  <from_NCI>
0

>  <RBA>
0.300000

>  <method>
hERa

>  <chemical_class>
Polychlorinated biphenyl

>  <set>
0

$$$$
tox-189
  Cerius2 12190218263D 1   1.00000                          
 Structure written by MMmdl.
 23 24  0  0  0  0  0  0  0  0999 V2000
   -0.3816    0.0905    0.4130 C   0  0  0  0  0  0
   -1.5242   -0.4768   -0.1771 C   0  0  0  0  0  0
   -2.7450    0.2015   -0.1636 C   0  0  0  0  0  0
   -2.8569    1.4514    0.4366 C   0  0  0  0  0  0
   -1.7332    2.0209    1.0264 C   0  0  0  0  0  0
   -0.5075    1.3520    1.0189 C   0  0  0  0  0  0
    0.9058   -0.6287    0.4108 C   0  0  0  0  0  0
    2.0728   -0.0988   -0.1709 C   0  0  0  0  0  0
    3.2800   -0.8026   -0.1524 C   0  0  0  0  0  0
    3.3423   -2.0579    0.4501 C   0  0  0  0  0  0
    2.2023   -2.6070    1.0302 C   0  0  0  0  0  0
    0.9971   -1.8993    1.0098 C   0  0  0  0  0  0
    2.0272    1.1264   -0.7844 O   0  0  0  0  0  0
   -1.8555    3.5665    1.7770 Cl  0  0  0  0  0  0
   -4.1270   -0.5180   -0.8982 Cl  0  0  0  0  0  0
   -1.4590   -1.4522   -0.6567 H   0  0  0  0  0  0
   -3.8086    1.9750    0.4452 H   0  0  0  0  0  0
    0.3590    1.8139    1.4894 H   0  0  0  0  0  0
    4.1785   -0.3888   -0.6049 H   0  0  0  0  0  0
    4.2812   -2.6087    0.4657 H   0  0  0  0  0  0
    2.2488   -3.5872    1.5019 H   0  0  0  0  0  0
    0.1213   -2.3487    1.4783 H   0  0  0  0  0  0
    2.9174    1.3337   -1.1379 H   0  0  0  0  0  0
  1  2  2  0  0  0
  1  6  1  0  0  0
  1  7  1  0  0  0
  2  3  1  0  0  0
  2 16  1  0  0  0
  3  4  2  0  0  0
  3 15  1  0  0  0
  4  5  1  0  0  0
  4 17  1  0  0  0
  5  6  2  0  0  0
  5 14  1  0  0  0
  6 18  1  0  0  0
  7  8  2  0  0  0
  7 12  1  0  0  0
  8  9  1  0  0  0
  8 13  1  0  0  0
  9 10  2  0  0  0
  9 19  1  0  0  0
 10 11  1  0  0  0
 10 20  1  0  0  0
 11 12  2  0  0  0
 11 21  1  0  0  0
 12 22  1  0  0  0
 13 23  1  0  0  0
M  END
>  <Name>
tox-189

>  <substance>
3,5-Dichloro-2'-biphenylol

>  <CASRN>


>  <from_NCI>
0

>  <RBA>
0.000000

>  <method>
hERa

>  <chemical_class>
Polychlorinated biphenyl

>  <set>
1

$$$$
tox-190
  Cerius2 12190218263D 1   1.00000                          
 Structure written by MMmdl.
 23 24  0  0  0  0  0  0  0  0999 V2000
    1.0105   -0.0075   -0.3990 C   0  0  0  0  0  0
    1.7243    1.1173   -0.8483 C   0  0  0  0  0  0
    3.1213    1.1204   -0.8624 C   0  0  0  0  0  0
    3.8388    0.0102   -0.4312 C   0  0  0  0  0  0
    3.1453   -1.1089    0.0159 C   0  0  0  0  0  0
    1.7484   -1.1232    0.0337 C   0  0  0  0  0  0
   -0.4643   -0.0167   -0.3822 C   0  0  0  0  0  0
   -1.1908   -1.0913   -0.9257 C   0  0  0  0  0  0
   -2.5893   -1.1003   -0.9103 C   0  0  0  0  0  0
   -3.2779   -0.0330   -0.3495 C   0  0  0  0  0  0
   -2.5909    1.0437    0.1961 C   0  0  0  0  0  0
   -1.1917    1.0491    0.1781 C   0  0  0  0  0  0
   -4.6405   -0.0758   -0.3518 O   0  0  0  0  0  0
    4.0178   -2.4925    0.5565 Cl  0  0  0  0  0  0
    3.9639    2.5147   -1.4225 Cl  0  0  0  0  0  0
    1.1875    1.9965   -1.2012 H   0  0  0  0  0  0
    4.9249    0.0170   -0.4436 H   0  0  0  0  0  0
    1.2308   -2.0091    0.3987 H   0  0  0  0  0  0
   -0.6711   -1.9344   -1.3801 H   0  0  0  0  0  0
   -3.1298   -1.9412   -1.3389 H   0  0  0  0  0  0
   -3.1200    1.8838    0.6399 H   0  0  0  0  0  0
   -0.6709    1.8982    0.6205 H   0  0  0  0  0  0
   -4.9764    0.7417    0.0745 H   0  0  0  0  0  0
  1  2  2  0  0  0
  1  6  1  0  0  0
  1  7  1  0  0  0
  2  3  1  0  0  0
  2 16  1  0  0  0
  3  4  2  0  0  0
  3 15  1  0  0  0
  4  5  1  0  0  0
  4 17  1  0  0  0
  5  6  2  0  0  0
  5 14  1  0  0  0
  6 18  1  0  0  0
  7  8  2  0  0  0
  7 12  1  0  0  0
  8  9  1  0  0  0
  8 19  1  0  0  0
  9 10  2  0  0  0
  9 20  1  0  0  0
 10 11  1  0  0  0
 10 13  1  0  0  0
 11 12  2  0  0  0
 11 21  1  0  0  0
 12 22  1  0  0  0
 13 23  1  0  0  0
M  END
>  <Name>
tox-190

>  <substance>
3,5-Dichloro-4'-biphenylol

>  <CASRN>


>  <from_NCI>
0

>  <RBA>
0.000000

>  <method>
hERa

>  <chemical_class>
Polychlorinated biphenyl

>  <set>
1

$$$$
tox-191
  Cerius2 12190218263D 1   1.00000                          
 Structure written by MMmdl.
 27 27  0  0  0  0  0  0  0  0999 V2000
   -0.6615    0.1300    0.0178 C   0  0  0  0  0  0
   -1.4337    1.2937    0.0118 C   0  0  0  0  0  0
   -2.8292    1.2097   -0.0144 C   0  0  0  0  0  0
   -3.4718   -0.0239   -0.0332 C   0  0  0  0  0  0
   -2.7039   -1.1824   -0.0241 C   0  0  0  0  0  0
   -1.3096   -1.1121    0.0023 C   0  0  0  0  0  0
    0.7492    0.1133    0.0472 N   0  0  0  0  0  0
    1.6223    1.1877    0.0206 C   0  0  0  0  0  0
    1.2972    2.3736   -0.0999 O   0  0  0  0  0  0
    3.1432    0.7990    0.1260 C   0  0  0  0  0  0
    3.4139    0.0531    1.4355 C   0  0  0  0  0  0
    3.5564    0.0843   -1.1406 C   0  0  0  0  0  0
    4.0330   -1.1638   -1.2622 C   0  0  0  0  0  0
    3.9519    1.9893    0.1744 O   0  0  0  0  0  0
   -3.7684    2.6551   -0.0214 Cl  0  0  0  0  0  0
   -3.4804   -2.7200   -0.0451 Cl  0  0  0  0  0  0
   -0.9792    2.2781    0.0317 H   0  0  0  0  0  0
   -4.5564   -0.0808   -0.0534 H   0  0  0  0  0  0
   -0.7319   -2.0342    0.0090 H   0  0  0  0  0  0
    1.1785   -0.8095    0.0585 H   0  0  0  0  0  0
    4.4867   -0.1245    1.5751 H   0  0  0  0  0  0
    2.8934   -0.9082    1.4919 H   0  0  0  0  0  0
    3.0864    0.6562    2.2910 H   0  0  0  0  0  0
    3.4385    0.6668   -2.0553 H   0  0  0  0  0  0
    4.2916   -1.5628   -2.2403 H   0  0  0  0  0  0
    4.1849   -1.8220   -0.4121 H   0  0  0  0  0  0
    3.4051    2.6856   -0.2503 H   0  0  0  0  0  0
  1  2  2  0  0  0
  1  6  1  0  0  0
  1  7  1  0  0  0
  2  3  1  0  0  0
  2 17  1  0  0  0
  3  4  2  0  0  0
  3 15  1  0  0  0
  4  5  1  0  0  0
  4 18  1  0  0  0
  5  6  2  0  0  0
  5 16  1  0  0  0
  6 19  1  0  0  0
  7  8  1  0  0  0
  7 20  1  0  0  0
  8  9  2  0  0  0
  8 10  1  0  0  0
 10 11  1  0  0  0
 10 12  1  0  0  0
 10 14  1  0  0  0
 11 21  1  0  0  0
 11 22  1  0  0  0
 11 23  1  0  0  0
 12 13  2  0  0  0
 12 24  1  0  0  0
 13 25  1  0  0  0
 13 26  1  0  0  0
 14 27  1  0  0  0
M  END
>  <Name>
tox-191

>  <substance>
3,5-Dichloro 2-hydroxy-2-methylbut-3 enanalide

>  <CASRN>
16776-82-1

>  <from_NCI>
0

>  <RBA>
0.000200

>  <method>
RUC,RUC

>  <chemical_class>
Organochlorine

>  <set>
2

$$$$
tox-192
  Cerius2 12190218263D 1   1.00000                          
 Structure written by MMmdl.
 19 19  0  0  0  0  0  0  0  0999 V2000
   -0.2299    0.3687   -0.6966 C   0  0  0  0  0  0
   -1.4097    1.0886   -0.9604 C   0  0  0  0  0  0
   -0.2858   -1.0289   -0.6870 C   0  0  0  0  0  0
    0.9052    1.1030   -0.4649 O   0  0  0  0  0  0
   -2.6162    0.4291   -1.2086 C   0  0  0  0  0  0
   -1.4145    2.8202   -0.9882 Cl  0  0  0  0  0  0
   -1.4935   -1.6913   -0.9353 C   0  0  0  0  0  0
    2.1160    0.3811   -0.1912 C   0  0  0  0  0  0
   -2.6507   -0.9611   -1.1944 C   0  0  0  0  0  0
    3.2414    1.3950    0.0380 C   0  0  0  0  0  0
   -4.1313   -1.7846   -1.4987 Cl  0  0  0  0  0  0
    3.4155    1.8071    1.2233 O   0  0  0  0  0  0
    3.9251    1.7376   -0.9720 O   0  0  0  0  0  0
    0.5906   -1.6403   -0.4900 H   0  0  0  0  0  0
   -3.5203    0.9968   -1.4110 H   0  0  0  0  0  0
   -1.5180   -2.7791   -0.9238 H   0  0  0  0  0  0
    2.3823   -0.2547   -1.0437 H   0  0  0  0  0  0
    2.0017   -0.2274    0.7137 H   0  0  0  0  0  0
    4.0595    2.3616    1.2388 H   0  0  0  0  0  0
  1  2  2  0  0  0
  1  3  1  0  0  0
  1  4  1  0  0  0
  2  5  1  0  0  0
  2  6  1  0  0  0
  3  7  2  0  0  0
  3 14  1  0  0  0
  4  8  1  0  0  0
  5  9  2  0  0  0
  5 15  1  0  0  0
  7  9  1  0  0  0
  7 16  1  0  0  0
  8 10  1  0  0  0
  8 17  1  0  0  0
  8 18  1  0  0  0
  9 11  1  0  0  0
 10 12  1  0  0  0
 10 13  2  0  0  0
 12 19  1  0  0  0
M  END
>  <Name>
tox-192

>  <substance>
2,4-Dichlorophenoxyacetic acid

>  <CASRN>
94-75-7

>  <from_NCI>
1

>  <RBA>
0.000000

>  <method>
RUC

>  <chemical_class>
Phenoxy carboxylic acid

>  <set>
2

$$$$
tox-193
  Cerius2 12190218263D 1   1.00000                          
 Structure written by MMmdl.
 30 30  0  0  0  0  0  0  0  0999 V2000
   -3.2008   -1.6169    1.4542 C   0  0  0  0  0  0
   -2.9940   -2.6933    2.3111 C   0  0  0  0  0  0
   -1.7072   -2.9516    2.7692 C   0  0  0  0  0  0
   -0.6367   -2.1452    2.3774 C   0  0  0  0  0  0
   -0.8449   -1.0617    1.5149 C   0  0  0  0  0  0
   -2.1376   -0.8016    1.0543 C   0  0  0  0  0  0
   -4.7909   -1.2849    0.8779 Cl  0  0  0  0  0  0
   -1.4307   -4.2799    3.8306 Cl  0  0  0  0  0  0
    0.2834   -0.2974    1.1647 N   0  0  0  0  0  0
    0.3625    0.7956    0.3508 C   0  0  0  0  0  0
    1.6609    1.1906    0.2984 O   0  0  0  0  0  0
    2.0338    2.3492   -0.5205 C   0  0  0  0  0  0
    3.5316    2.5055   -0.2664 C   0  0  0  0  0  0
    4.2230    3.6218    0.0066 C   0  0  0  0  0  0
   -0.5479    1.3450   -0.2517 O   0  0  0  0  0  0
    1.2051    3.6179   -0.0655 C   0  0  0  0  0  0
    1.8662    1.9958   -2.0058 C   0  0  0  0  0  0
    0.8034    4.4152   -0.9664 O   0  0  0  0  0  0
    1.0021    3.7717    1.1795 O   0  0  0  0  0  0
   -3.8251   -3.3222    2.6171 H   0  0  0  0  0  0
    0.3613   -2.3679    2.7494 H   0  0  0  0  0  0
   -2.3468    0.0262    0.3850 H   0  0  0  0  0  0
    1.1787   -0.5760    1.5556 H   0  0  0  0  0  0
    4.1008    1.5759   -0.3294 H   0  0  0  0  0  0
    5.2991    3.5812    0.1610 H   0  0  0  0  0  0
    3.7573    4.6002    0.0816 H   0  0  0  0  0  0
    2.3294    2.7481   -2.6546 H   0  0  0  0  0  0
    0.8099    1.9369   -2.2883 H   0  0  0  0  0  0
    2.3065    1.0181   -2.2347 H   0  0  0  0  0  0
    0.3729    5.0544   -0.6077 H   0  0  0  0  0  0
  1  2  2  0  0  0
  1  6  1  0  0  0
  1  7  1  0  0  0
  2  3  1  0  0  0
  2 20  1  0  0  0
  3  4  2  0  0  0
  3  8  1  0  0  0
  4  5  1  0  0  0
  4 21  1  0  0  0
  5  6  2  0  0  0
  5  9  1  0  0  0
  6 22  1  0  0  0
  9 10  1  0  0  0
  9 23  1  0  0  0
 10 11  1  0  0  0
 10 15  2  0  0  0
 11 12  1  0  0  0
 12 13  1  0  0  0
 12 16  1  0  0  0
 12 17  1  0  0  0
 13 14  2  0  0  0
 13 24  1  0  0  0
 14 25  1  0  0  0
 14 26  1  0  0  0
 16 18  1  0  0  0
 16 19  2  0  0  0
 17 27  1  0  0  0
 17 28  1  0  0  0
 17 29  1  0  0  0
 18 30  1  0  0  0
M  END
>  <Name>
tox-193

>  <substance>
2-[[(3,5-Dichlorophenyl)amino]-carbamoyl]oxy]-2-methyl-3-butenoic acid

>  <CASRN>
119209-27-7

>  <from_NCI>
1

>  <RBA>
0.000200

>  <method>
RUC,RUC

>  <chemical_class>
Organochlorine

>  <set>
1

$$$$
tox-194
  Cerius2 12190218263D 1   1.00000                          
 Structure written by MMmdl.
 27 31  0  0  0  0  0  0  0  0999 V2000
    0.2149    1.0470    0.3934 C   0  0  0  0  0  0
   -0.5716   -0.3195    0.5005 C   0  0  0  0  0  0
    0.1003    1.3824   -1.1312 C   0  0  0  0  0  0
    1.5611    0.7160    1.0984 C   0  0  0  0  0  0
   -1.0208   -0.5658   -0.9785 C   0  0  0  0  0  0
    0.4401   -1.2316    1.2511 C   0  0  0  0  0  0
   -1.3630    0.8974   -1.4423 C   0  0  0  0  0  0
    0.8496    0.3592   -1.9586 C   0  0  0  0  0  0
    0.4410    3.0710   -1.4971 Cl  0  0  0  0  0  0
    1.2937    0.5636    2.6036 C   0  0  0  0  0  0
    1.8288   -0.7664    0.7674 C   0  0  0  0  0  0
    0.1822   -0.8006   -1.8677 C   0  0  0  0  0  0
   -2.3268   -1.7388   -1.1202 Cl  0  0  0  0  0  0
    0.5379   -0.7493    2.7066 C   0  0  0  0  0  0
   -1.8636    1.0489   -3.1839 Cl  0  0  0  0  0  0
   -2.6666    1.7213   -0.5019 Cl  0  0  0  0  0  0
    2.2952    0.6667   -2.7938 Cl  0  0  0  0  0  0
   -0.0522    0.4971    3.0718 O   0  0  0  0  0  0
    0.5909   -2.2951   -2.5616 Cl  0  0  0  0  0  0
   -0.3022    1.8278    0.9675 H   0  0  0  0  0  0
   -1.4659   -0.1939    1.1260 H   0  0  0  0  0  0
    2.3812    1.3997    0.8726 H   0  0  0  0  0  0
    0.2501   -2.3026    1.1630 H   0  0  0  0  0  0
    2.1206    0.7455    3.2729 H   0  0  0  0  0  0
    2.6387   -1.1846    1.3806 H   0  0  0  0  0  0
    2.0745   -0.9887   -0.2636 H   0  0  0  0  0  0
    0.8434   -1.4728    3.4469 H   0  0  0  0  0  0
  1  2  1  0  0  0
  1  3  1  0  0  0
  1  4  1  0  0  0
  1 20  1  0  0  0
  2  5  1  0  0  0
  2  6  1  0  0  0
  2 21  1  0  0  0
  3  7  1  0  0  0
  3  8  1  0  0  0
  3  9  1  0  0  0
  4 10  1  0  0  0
  4 11  1  0  0  0
  4 22  1  0  0  0
  5  7  1  0  0  0
  5 12  1  0  0  0
  5 13  1  0  0  0
  6 11  1  0  0  0
  6 14  1  0  0  0
  6 23  1  0  0  0
  7 15  1  0  0  0
  7 16  1  0  0  0
  8 12  2  0  0  0
  8 17  1  0  0  0
 10 14  1  0  0  0
 10 18  1  0  0  0
 10 24  1  0  0  0
 11 25  1  0  0  0
 11 26  1  0  0  0
 12 19  1  0  0  0
 14 18  1  0  0  0
 14 27  1  0  0  0
M  END
>  <Name>
tox-194

>  <substance>
Dieldrin

>  <CASRN>
60-57-1

>  <from_NCI>
1

>  <RBA>
0.000100

>  <method>
hERa,hERa-FP,MUC,RUC,RUC

>  <chemical_class>
Organochlorine; Chlorinated cyclodiene

>  <set>
1

$$$$
tox-195
  Cerius2 12190218263D 1   1.00000                          
 Structure written by MMmdl.
 38 39  0  0  0  0  0  0  0  0999 V2000
    0.6359    0.3865   -0.3266 C   0  0  0  0  0  0
   -0.6367   -0.3893   -0.3232 C   0  0  0  0  0  0
    0.6654    1.8351    0.0034 C   0  0  0  0  0  0
    1.8123   -0.2278   -0.5937 C   0  0  0  0  0  0
   -0.6660   -1.8345    0.0210 C   0  0  0  0  0  0
   -1.8130    0.2216   -0.5984 C   0  0  0  0  0  0
    0.7904    2.8022   -0.9946 C   0  0  0  0  0  0
    0.5509    2.2623    1.3257 C   0  0  0  0  0  0
    3.1952    0.3529   -0.5967 C   0  0  0  0  0  0
   -0.5551   -2.2486    1.3477 C   0  0  0  0  0  0
   -0.7869   -2.8113   -0.9681 C   0  0  0  0  0  0
   -3.1953   -0.3604   -0.5959 C   0  0  0  0  0  0
    0.8083    4.1688   -0.6629 C   0  0  0  0  0  0
    0.5712    3.6343    1.6344 C   0  0  0  0  0  0
   -0.5748   -3.6175    1.6695 C   0  0  0  0  0  0
   -0.8040   -4.1746   -0.6233 C   0  0  0  0  0  0
    0.7011    4.6435    0.6594 C   0  0  0  0  0  0
   -0.7003   -4.6362    0.7039 C   0  0  0  0  0  0
    0.7191    5.8816    0.9494 O   0  0  0  0  0  0
   -0.7173   -5.8715    1.0058 O   0  0  0  0  0  0
    1.8099   -1.2889   -0.8431 H   0  0  0  0  0  0
   -1.8106    1.2798   -0.8598 H   0  0  0  0  0  0
    0.8754    2.5084   -2.0394 H   0  0  0  0  0  0
    0.4463    1.5385    2.1322 H   0  0  0  0  0  0
    3.8399   -0.2417    0.0587 H   0  0  0  0  0  0
    3.2432    1.3875   -0.2500 H   0  0  0  0  0  0
    3.6094    0.3117   -1.6088 H   0  0  0  0  0  0
   -0.4536   -1.5170    2.1474 H   0  0  0  0  0  0
   -0.8688   -2.5277   -2.0160 H   0  0  0  0  0  0
   -3.8430    0.2454    0.0461 H   0  0  0  0  0  0
   -3.2435   -1.3884   -0.2299 H   0  0  0  0  0  0
   -3.6061   -0.3387   -1.6099 H   0  0  0  0  0  0
    0.9109    4.8821   -1.4858 H   0  0  0  0  0  0
    0.4800    3.9111    2.6888 H   0  0  0  0  0  0
   -0.4862   -3.8840    2.7267 H   0  0  0  0  0  0
   -0.9025   -4.8960   -1.4396 H   0  0  0  0  0  0
    0.6433    5.9767    1.7907 H   0  0  0  0  0  0
   -0.7990   -6.3350    0.2980 H   0  0  0  0  0  0
  1  2  1  0  0  0
  1  3  1  0  0  0
  1  4  2  0  0  0
  2  5  1  0  0  0
  2  6  2  0  0  0
  3  7  2  0  0  0
  3  8  1  0  0  0
  4  9  1  0  0  0
  4 21  1  0  0  0
  5 10  2  0  0  0
  5 11  1  0  0  0
  6 12  1  0  0  0
  6 22  1  0  0  0
  7 13  1  0  0  0
  7 23  1  0  0  0
  8 14  2  0  0  0
  8 24  1  0  0  0
  9 25  1  0  0  0
  9 26  1  0  0  0
  9 27  1  0  0  0
 10 15  1  0  0  0
 10 28  1  0  0  0
 11 16  2  0  0  0
 11 29  1  0  0  0
 12 30  1  0  0  0
 12 31  1  0  0  0
 12 32  1  0  0  0
 13 17  2  0  0  0
 13 33  1  0  0  0
 14 17  1  0  0  0
 14 34  1  0  0  0
 15 18  2  0  0  0
 15 35  1  0  0  0
 16 18  1  0  0  0
 16 36  1  0  0  0
 17 19  1  0  0  0
 18 20  1  0  0  0
 19 37  1  0  0  0
 20 38  1  0  0  0
M  END
>  <Name>
tox-195

>  <substance>
Dienestrol

>  <CASRN>
84-17-3

>  <from_NCI>
1

>  <RBA>
97.000000

>  <method>
hERa,RUC,MUC

>  <chemical_class>
Diphenylalkene

>  <set>
1

$$$$
tox-197
  Cerius2 12190218263D 1   1.00000                          
 Structure written by MMmdl.
 38 39  0  0  0  0  0  0  0  0999 V2000
    0.9507    4.3266   -1.4541 C   0  0  0  0  0  0
    0.3172    3.2296   -2.0665 C   0  0  0  0  0  0
    0.2131    1.9608   -1.4636 C   0  0  0  0  0  0
    0.7530    1.7188   -0.1993 C   0  0  0  0  0  0
    1.3783    2.7929    0.4421 C   0  0  0  0  0  0
    1.4718    4.0544   -0.1763 C   0  0  0  0  0  0
   -1.3816   -2.8013    0.3817 C   0  0  0  0  0  0
   -1.4702   -4.0517   -0.2596 C   0  0  0  0  0  0
   -0.9390   -4.3014   -1.5378 C   0  0  0  0  0  0
   -0.3006   -3.1940   -2.1257 C   0  0  0  0  0  0
   -0.2012   -1.9360   -1.4998 C   0  0  0  0  0  0
   -0.7512   -1.7161   -0.2357 C   0  0  0  0  0  0
   -1.0252   -5.4329   -2.1116 O   0  0  0  0  0  0
   -0.6384   -0.3827    0.4371 C   0  0  0  0  0  0
    0.6348    0.3736    0.4491 C   0  0  0  0  0  0
   -1.7622    0.1165    1.0017 C   0  0  0  0  0  0
   -1.9165    1.3874    1.7795 C   0  0  0  0  0  0
    1.7540   -0.1354    1.0142 C   0  0  0  0  0  0
    1.9019   -1.4198    1.7708 C   0  0  0  0  0  0
    1.0411    5.4681   -2.0071 O   0  0  0  0  0  0
   -0.1247    3.3476   -3.0603 H   0  0  0  0  0  0
   -0.3012    1.1731   -2.0101 H   0  0  0  0  0  0
    1.7962    2.6751    1.4410 H   0  0  0  0  0  0
    1.9756    4.8487    0.3821 H   0  0  0  0  0  0
   -1.8074   -2.7010    1.3792 H   0  0  0  0  0  0
   -1.9784   -4.8556    0.2808 H   0  0  0  0  0  0
    0.1492   -3.2946   -3.1178 H   0  0  0  0  0  0
    0.3174   -1.1388   -2.0282 H   0  0  0  0  0  0
   -2.6945   -0.4436    0.9203 H   0  0  0  0  0  0
   -2.4405    2.1350    1.1766 H   0  0  0  0  0  0
   -0.9667    1.8064    2.1191 H   0  0  0  0  0  0
   -2.5157    1.1927    2.6752 H   0  0  0  0  0  0
    2.6868    0.4260    0.9504 H   0  0  0  0  0  0
    2.4930   -1.2406    2.6752 H   0  0  0  0  0  0
    2.4316   -2.1564    1.1596 H   0  0  0  0  0  0
    0.9494   -1.8450    2.0946 H   0  0  0  0  0  0
   -0.6491   -5.3939   -2.8729 H   0  0  0  0  0  0
    1.4540    6.0016   -1.4900 H   0  0  0  0  0  0
  1  2  2  0  0  0
  1  6  1  0  0  0
  1 20  1  0  0  0
  2  3  1  0  0  0
  2 21  1  0  0  0
  3  4  2  0  0  0
  3 22  1  0  0  0
  4  5  1  0  0  0
  4 15  1  0  0  0
  5  6  2  0  0  0
  5 23  1  0  0  0
  6 24  1  0  0  0
  7  8  2  0  0  0
  7 12  1  0  0  0
  7 25  1  0  0  0
  8  9  1  0  0  0
  8 26  1  0  0  0
  9 10  2  0  0  0
  9 13  1  0  0  0
 10 11  1  0  0  0
 10 27  1  0  0  0
 11 12  2  0  0  0
 11 28  1  0  0  0
 12 14  1  0  0  0
 13 37  1  0  0  0
 14 15  1  0  0  0
 14 16  2  0  0  0
 15 18  2  0  0  0
 16 17  1  0  0  0
 16 29  1  0  0  0
 17 30  1  0  0  0
 17 31  1  0  0  0
 17 32  1  0  0  0
 18 19  1  0  0  0
 18 33  1  0  0  0
 19 34  1  0  0  0
 19 35  1  0  0  0
 19 36  1  0  0  0
 20 38  1  0  0  0
M  END
>  <Name>
tox-197

>  <substance>
b-Dienestrol

>  <CASRN>
35495-11-5

>  <from_NCI>
1

>  <RBA>
0.400000

>  <method>
MUC

>  <chemical_class>
Diphenylalkene

>  <set>
0

$$$$
tox-198
  Cerius2 12190218263D 1   1.00000                          
 Structure written by MMmdl.
 41 43  0  0  0  0  0  0  0  0999 V2000
    1.0459   -1.4893    0.4722 C   0  0  0  0  0  0
    0.2579   -0.1806    0.6062 C   0  0  0  0  0  0
    1.0515    0.9067    0.7237 C   0  0  0  0  0  0
    2.4383    0.4319    0.7255 C   0  0  0  0  0  0
    3.6214    1.1440    0.8706 C   0  0  0  0  0  0
    4.8299    0.4424    0.8955 C   0  0  0  0  0  0
    4.8353   -0.9514    0.7923 C   0  0  0  0  0  0
    3.6519   -1.6733    0.6521 C   0  0  0  0  0  0
    2.4569   -0.9661    0.5999 C   0  0  0  0  0  0
   -1.2094   -0.1982    0.6632 C   0  0  0  0  0  0
   -1.8715   -0.9901    1.6112 C   0  0  0  0  0  0
   -3.2681   -1.0235    1.6589 C   0  0  0  0  0  0
   -4.0064   -0.2693    0.7550 C   0  0  0  0  0  0
   -3.3708    0.5174   -0.1984 C   0  0  0  0  0  0
   -1.9735    0.5496   -0.2439 C   0  0  0  0  0  0
   -5.3664   -0.3274    0.8315 O   0  0  0  0  0  0
    6.0436   -1.5849    0.8423 O   0  0  0  0  0  0
    0.6906    2.3437    0.9393 C   0  0  0  0  0  0
    0.8867    3.1927   -0.3099 C   0  0  0  0  0  0
    0.7480   -2.1804   -0.8720 C   0  0  0  0  0  0
    1.3212   -3.5864   -0.9871 C   0  0  0  0  0  0
    0.8274   -2.1499    1.3197 H   0  0  0  0  0  0
    3.6242    2.2252    0.9747 H   0  0  0  0  0  0
    5.7660    0.9851    1.0091 H   0  0  0  0  0  0
    3.6605   -2.7568    0.6002 H   0  0  0  0  0  0
   -1.3093   -1.5816    2.3319 H   0  0  0  0  0  0
   -3.7699   -1.6380    2.4029 H   0  0  0  0  0  0
   -3.9398    1.1064   -0.9138 H   0  0  0  0  0  0
   -1.4881    1.1562   -1.0060 H   0  0  0  0  0  0
   -5.7404    0.2533    0.1347 H   0  0  0  0  0  0
    5.8910   -2.5503    0.7572 H   0  0  0  0  0  0
    1.2869    2.7585    1.7609 H   0  0  0  0  0  0
   -0.3523    2.4339    1.2637 H   0  0  0  0  0  0
    0.5835    4.2260   -0.1120 H   0  0  0  0  0  0
    0.2853    2.8200   -1.1450 H   0  0  0  0  0  0
    1.9336    3.2080   -0.6286 H   0  0  0  0  0  0
    1.1142   -1.5753   -1.7114 H   0  0  0  0  0  0
   -0.3378   -2.2696   -1.0030 H   0  0  0  0  0  0
    0.9163   -4.0816   -1.8760 H   0  0  0  0  0  0
    1.0604   -4.1936   -0.1148 H   0  0  0  0  0  0
    2.4081   -3.5727   -1.0950 H   0  0  0  0  0  0
  1  2  1  0  0  0
  1  9  1  0  0  0
  1 20  1  0  0  0
  1 22  1  0  0  0
  2  3  2  0  0  0
  2 10  1  0  0  0
  3  4  1  0  0  0
  3 18  1  0  0  0
  4  5  2  0  0  0
  4  9  1  0  0  0
  5  6  1  0  0  0
  5 23  1  0  0  0
  6  7  2  0  0  0
  6 24  1  0  0  0
  7  8  1  0  0  0
  7 17  1  0  0  0
  8  9  2  0  0  0
  8 25  1  0  0  0
 10 11  2  0  0  0
 10 15  1  0  0  0
 11 12  1  0  0  0
 11 26  1  0  0  0
 12 13  2  0  0  0
 12 27  1  0  0  0
 13 14  1  0  0  0
 13 16  1  0  0  0
 14 15  2  0  0  0
 14 28  1  0  0  0
 15 29  1  0  0  0
 16 30  1  0  0  0
 17 31  1  0  0  0
 18 19  1  0  0  0
 18 32  1  0  0  0
 18 33  1  0  0  0
 19 34  1  0  0  0
 19 35  1  0  0  0
 19 36  1  0  0  0
 20 21  1  0  0  0
 20 37  1  0  0  0
 20 38  1  0  0  0
 21 39  1  0  0  0
 21 40  1  0  0  0
 21 41  1  0  0  0
M  END
>  <Name>
tox-198

>  <substance>
1,3-Diethyl-6,4'-dihydroxy-2- phenylindene

>  <CASRN>


>  <from_NCI>
0

>  <RBA>
79.000000

>  <method>
RUC

>  <chemical_class>
Stilbene

>  <set>
0

$$$$
tox-199
  Cerius2 12190218263D 1   1.00000                          
 Structure written by MMmdl.
 68 67  0  0  0  0  0  0  0  0999 V2000
    7.8315    0.6328    0.7540 C   0  0  0  0  0  0
    6.5192   -0.1634    0.8819 C   0  0  0  0  0  0
    9.0437   -0.3066    0.5550 C   0  0  0  0  0  0
    8.1025    1.5200    1.9942 C   0  0  0  0  0  0
    5.4001    0.7216    0.7048 O   0  0  0  0  0  0
    9.0586   -1.0137   -0.8048 C   0  0  0  0  0  0
    7.0715    2.6102    2.2452 C   0  0  0  0  0  0
    4.1741    0.1406    0.8498 C   0  0  0  0  0  0
   10.3467   -1.8172   -0.9949 C   0  0  0  0  0  0
    3.0988    1.1855    0.6582 C   0  0  0  0  0  0
    3.9864   -1.0442    1.0988 O   0  0  0  0  0  0
   10.3680   -2.5257   -2.3398 C   0  0  0  0  0  0
    1.6951    0.5998    0.8042 C   0  0  0  0  0  0
    0.6210    1.6725    0.6196 C   0  0  0  0  0  0
   -0.7831    1.0873    0.7642 C   0  0  0  0  0  0
   -1.8564    2.1393    0.6025 C   0  0  0  0  0  0
   -3.0838    1.5612    0.7482 O   0  0  0  0  0  0
   -1.6662    3.3286    0.3769 O   0  0  0  0  0  0
   -4.1971    2.4641    0.6303 C   0  0  0  0  0  0
   -5.5065    1.6795    0.8465 C   0  0  0  0  0  0
   -6.6949    2.6051    0.5065 C   0  0  0  0  0  0
   -5.5698    1.1220    2.2880 C   0  0  0  0  0  0
   -8.0652    1.9287    0.5778 C   0  0  0  0  0  0
   -6.1465   -0.2869    2.3531 C   0  0  0  0  0  0
   -9.1694    2.8601    0.0747 C   0  0  0  0  0  0
  -10.5351    2.1969    0.1537 C   0  0  0  0  0  0
    7.7561    1.2991   -0.1157 H   0  0  0  0  0  0
    6.4598   -0.6435    1.8663 H   0  0  0  0  0  0
    6.4519   -0.9334    0.1079 H   0  0  0  0  0  0
    9.0695   -1.0533    1.3588 H   0  0  0  0  0  0
    9.9674    0.2800    0.6423 H   0  0  0  0  0  0
    9.0756    2.0117    1.8682 H   0  0  0  0  0  0
    8.1847    0.8933    2.8909 H   0  0  0  0  0  0
    8.9699   -0.2704   -1.6061 H   0  0  0  0  0  0
    8.2032   -1.6912   -0.8933 H   0  0  0  0  0  0
    7.4343    3.2948    3.0192 H   0  0  0  0  0  0
    6.1252    2.1947    2.6024 H   0  0  0  0  0  0
    6.8834    3.1945    1.3393 H   0  0  0  0  0  0
   10.4430   -2.5605   -0.1949 H   0  0  0  0  0  0
   11.2151   -1.1517   -0.9263 H   0  0  0  0  0  0
    3.2170    1.6170   -0.3421 H   0  0  0  0  0  0
    3.2515    1.9711    1.4067 H   0  0  0  0  0  0
   11.2979   -3.0911   -2.4556 H   0  0  0  0  0  0
   10.3028   -1.8070   -3.1629 H   0  0  0  0  0  0
    9.5314   -3.2262   -2.4277 H   0  0  0  0  0  0
    1.5894    0.1378    1.7937 H   0  0  0  0  0  0
    1.5508   -0.1995    0.0664 H   0  0  0  0  0  0
    0.7268    2.1358   -0.3694 H   0  0  0  0  0  0
    0.7658    2.4708    1.3583 H   0  0  0  0  0  0
   -0.8952    0.6370    1.7568 H   0  0  0  0  0  0
   -0.9428    0.3165    0.0019 H   0  0  0  0  0  0
   -4.1834    2.9029   -0.3745 H   0  0  0  0  0  0
   -4.1030    3.2634    1.3758 H   0  0  0  0  0  0
   -5.5009    0.8360    0.1433 H   0  0  0  0  0  0
   -6.5524    2.9950   -0.5099 H   0  0  0  0  0  0
   -6.6870    3.4750    1.1760 H   0  0  0  0  0  0
   -6.1570    1.7879    2.9313 H   0  0  0  0  0  0
   -4.5680    1.0798    2.7316 H   0  0  0  0  0  0
   -8.2880    1.6444    1.6118 H   0  0  0  0  0  0
   -8.0566    1.0128   -0.0249 H   0  0  0  0  0  0
   -6.1722   -0.6341    3.3910 H   0  0  0  0  0  0
   -5.5267   -0.9857    1.7816 H   0  0  0  0  0  0
   -7.1643   -0.3351    1.9594 H   0  0  0  0  0  0
   -8.9700    3.1484   -0.9639 H   0  0  0  0  0  0
   -9.1808    3.7801    0.6707 H   0  0  0  0  0  0
  -11.3092    2.8784   -0.2128 H   0  0  0  0  0  0
  -10.7810    1.9270    1.1856 H   0  0  0  0  0  0
  -10.5659    1.2884   -0.4560 H   0  0  0  0  0  0
  1  2  1  0  0  0
  1  3  1  0  0  0
  1  4  1  0  0  0
  1 27  1  0  0  0
  2  5  1  0  0  0
  2 28  1  0  0  0
  2 29  1  0  0  0
  3  6  1  0  0  0
  3 30  1  0  0  0
  3 31  1  0  0  0
  4  7  1  0  0  0
  4 32  1  0  0  0
  4 33  1  0  0  0
  5  8  1  0  0  0
  6  9  1  0  0  0
  6 34  1  0  0  0
  6 35  1  0  0  0
  7 36  1  0  0  0
  7 37  1  0  0  0
  7 38  1  0  0  0
  8 10  1  0  0  0
  8 11  2  0  0  0
  9 12  1  0  0  0
  9 39  1  0  0  0
  9 40  1  0  0  0
 10 13  1  0  0  0
 10 41  1  0  0  0
 10 42  1  0  0  0
 12 43  1  0  0  0
 12 44  1  0  0  0
 12 45  1  0  0  0
 13 14  1  0  0  0
 13 46  1  0  0  0
 13 47  1  0  0  0
 14 15  1  0  0  0
 14 48  1  0  0  0
 14 49  1  0  0  0
 15 16  1  0  0  0
 15 50  1  0  0  0
 15 51  1  0  0  0
 16 17  1  0  0  0
 16 18  2  0  0  0
 17 19  1  0  0  0
 19 20  1  0  0  0
 19 52  1  0  0  0
 19 53  1  0  0  0
 20 21  1  0  0  0
 20 22  1  0  0  0
 20 54  1  0  0  0
 21 23  1  0  0  0
 21 55  1  0  0  0
 21 56  1  0  0  0
 22 24  1  0  0  0
 22 57  1  0  0  0
 22 58  1  0  0  0
 23 25  1  0  0  0
 23 59  1  0  0  0
 23 60  1  0  0  0
 24 61  1  0  0  0
 24 62  1  0  0  0
 24 63  1  0  0  0
 25 26  1  0  0  0
 25 64  1  0  0  0
 25 65  1  0  0  0
 26 66  1  0  0  0
 26 67  1  0  0  0
 26 68  1  0  0  0
M  END
>  <Name>
tox-199

>  <substance>
Di-2-ethylhexyl adipate

>  <CASRN>
103-23-1

>  <from_NCI>
1

>  <RBA>
0.000000

>  <method>
hERa-FP

>  <chemical_class>
Ester

>  <set>
1

$$$$
tox-200
  Cerius2 12190218263D 1   1.00000                          
 Structure written by MMmdl.
 66 66  0  0  0  0  0  0  0  0999 V2000
    0.6809   -1.2613   -0.0832 C   0  0  0  0  0  0
   -0.5029   -1.2462   -0.8308 C   0  0  0  0  0  0
    1.2463   -0.0121    0.4667 C   0  0  0  0  0  0
    1.3020   -2.4844    0.2124 C   0  0  0  0  0  0
   -1.1355    0.0277   -1.2246 C   0  0  0  0  0  0
   -1.0617   -2.4521   -1.2804 C   0  0  0  0  0  0
    2.5791    0.0092    0.2267 O   0  0  0  0  0  0
    0.5909    0.8492    1.0311 O   0  0  0  0  0  0
    0.7417   -3.6809   -0.2391 C   0  0  0  0  0  0
   -2.4522   -0.0239   -0.9117 O   0  0  0  0  0  0
   -0.5388    0.9608   -1.7375 O   0  0  0  0  0  0
   -0.4390   -3.6650   -0.9811 C   0  0  0  0  0  0
    3.2562    1.1946    0.6740 C   0  0  0  0  0  0
   -3.1888    1.1735   -1.2063 C   0  0  0  0  0  0
    4.7428    1.1228    0.2727 C   0  0  0  0  0  0
   -4.6399    1.0160   -0.7146 C   0  0  0  0  0  0
    5.5371    2.1342    1.1316 C   0  0  0  0  0  0
    4.9638    1.3792   -1.2365 C   0  0  0  0  0  0
   -5.4491    2.2696   -1.1061 C   0  0  0  0  0  0
   -4.7158    0.6550    0.7859 C   0  0  0  0  0  0
    7.0568    2.0389    0.9622 C   0  0  0  0  0  0
    4.2209    0.4324   -2.1686 C   0  0  0  0  0  0
   -6.9369    2.1795   -0.7554 C   0  0  0  0  0  0
   -4.1956    1.7254    1.7350 C   0  0  0  0  0  0
    7.7819    2.9434    1.9604 C   0  0  0  0  0  0
   -7.7061    3.3861   -1.2955 C   0  0  0  0  0  0
    9.2907    2.8594    1.7939 C   0  0  0  0  0  0
   -9.1830    3.3076   -0.9440 C   0  0  0  0  0  0
    2.2141   -2.5156    0.8059 H   0  0  0  0  0  0
   -1.9731   -2.4540   -1.8758 H   0  0  0  0  0  0
    1.2245   -4.6290   -0.0065 H   0  0  0  0  0  0
   -0.8728   -4.6002   -1.3324 H   0  0  0  0  0  0
    3.1607    1.2408    1.7654 H   0  0  0  0  0  0
    2.7838    2.0827    0.2367 H   0  0  0  0  0  0
   -3.1810    1.3276   -2.2922 H   0  0  0  0  0  0
   -2.7062    2.0330   -0.7264 H   0  0  0  0  0  0
    5.1083    0.1114    0.4960 H   0  0  0  0  0  0
   -5.0677    0.1573   -1.2512 H   0  0  0  0  0  0
    5.2987    1.9606    2.1891 H   0  0  0  0  0  0
    5.2075    3.1551    0.8999 H   0  0  0  0  0  0
    6.0305    1.2802   -1.4660 H   0  0  0  0  0  0
    4.6838    2.4107   -1.4832 H   0  0  0  0  0  0
   -5.3549    2.4182   -2.1899 H   0  0  0  0  0  0
   -5.0157    3.1614   -0.6371 H   0  0  0  0  0  0
   -4.1550   -0.2703    0.9665 H   0  0  0  0  0  0
   -5.7528    0.4215    1.0539 H   0  0  0  0  0  0
    7.3435    2.3333   -0.0531 H   0  0  0  0  0  0
    7.3794    1.0009    1.1067 H   0  0  0  0  0  0
    4.5681    0.5739   -3.1975 H   0  0  0  0  0  0
    3.1445    0.6261   -2.1635 H   0  0  0  0  0  0
    4.3963   -0.6124   -1.8946 H   0  0  0  0  0  0
   -7.0659    2.1346    0.3316 H   0  0  0  0  0  0
   -7.3589    1.2579   -1.1738 H   0  0  0  0  0  0
   -4.2898    1.3806    2.7701 H   0  0  0  0  0  0
   -4.7639    2.6554    1.6449 H   0  0  0  0  0  0
   -3.1390    1.9431    1.5557 H   0  0  0  0  0  0
    7.5177    2.6559    2.9847 H   0  0  0  0  0  0
    7.4616    3.9826    1.8218 H   0  0  0  0  0  0
   -7.5988    3.4398   -2.3851 H   0  0  0  0  0  0
   -7.2864    4.3105   -0.8818 H   0  0  0  0  0  0
    9.7888    3.5126    2.5171 H   0  0  0  0  0  0
    9.5928    3.1723    0.7893 H   0  0  0  0  0  0
    9.6470    1.8373    1.9575 H   0  0  0  0  0  0
   -9.7138    4.1790   -1.3401 H   0  0  0  0  0  0
   -9.3274    3.2863    0.1410 H   0  0  0  0  0  0
   -9.6405    2.4087   -1.3695 H   0  0  0  0  0  0
  1  2  2  0  0  0
  1  3  1  0  0  0
  1  4  1  0  0  0
  2  5  1  0  0  0
  2  6  1  0  0  0
  3  7  1  0  0  0
  3  8  2  0  0  0
  4  9  2  0  0  0
  4 29  1  0  0  0
  5 10  1  0  0  0
  5 11  2  0  0  0
  6 12  2  0  0  0
  6 30  1  0  0  0
  7 13  1  0  0  0
  9 12  1  0  0  0
  9 31  1  0  0  0
 10 14  1  0  0  0
 12 32  1  0  0  0
 13 15  1  0  0  0
 13 33  1  0  0  0
 13 34  1  0  0  0
 14 16  1  0  0  0
 14 35  1  0  0  0
 14 36  1  0  0  0
 15 17  1  0  0  0
 15 18  1  0  0  0
 15 37  1  0  0  0
 16 19  1  0  0  0
 16 20  1  0  0  0
 16 38  1  0  0  0
 17 21  1  0  0  0
 17 39  1  0  0  0
 17 40  1  0  0  0
 18 22  1  0  0  0
 18 41  1  0  0  0
 18 42  1  0  0  0
 19 23  1  0  0  0
 19 43  1  0  0  0
 19 44  1  0  0  0
 20 24  1  0  0  0
 20 45  1  0  0  0
 20 46  1  0  0  0
 21 25  1  0  0  0
 21 47  1  0  0  0
 21 48  1  0  0  0
 22 49  1  0  0  0
 22 50  1  0  0  0
 22 51  1  0  0  0
 23 26  1  0  0  0
 23 52  1  0  0  0
 23 53  1  0  0  0
 24 54  1  0  0  0
 24 55  1  0  0  0
 24 56  1  0  0  0
 25 27  1  0  0  0
 25 57  1  0  0  0
 25 58  1  0  0  0
 26 28  1  0  0  0
 26 59  1  0  0  0
 26 60  1  0  0  0
 27 61  1  0  0  0
 27 62  1  0  0  0
 27 63  1  0  0  0
 28 64  1  0  0  0
 28 65  1  0  0  0
 28 66  1  0  0  0
M  END
>  <Name>
tox-200

>  <substance>
Diethylhexyl phthalate

>  <CASRN>
117-81-7

>  <from_NCI>
1

>  <RBA>
0.000000

>  <method>
hERa-FP,RUC,RUC

>  <chemical_class>
Phthalate

>  <set>
0

$$$$
tox-201
  Cerius2 12190218263D 1   1.00000                          
 Structure written by MMmdl.
 40 42  0  0  0  0  0  0  0  0999 V2000
    0.7917   -1.4761    0.4118 C   0  0  0  0  0  0
    0.0056   -0.1722    0.5487 C   0  0  0  0  0  0
    0.7961    0.9144    0.6962 C   0  0  0  0  0  0
    2.1913    0.4428    0.7287 C   0  0  0  0  0  0
    3.3946    1.1171    0.9165 C   0  0  0  0  0  0
    4.5912    0.3958    0.9583 C   0  0  0  0  0  0
    4.5819   -0.9993    0.8322 C   0  0  0  0  0  0
    3.3813   -1.6854    0.6524 C   0  0  0  0  0  0
    2.1994   -0.9567    0.5815 C   0  0  0  0  0  0
   -1.4622   -0.1949    0.5799 C   0  0  0  0  0  0
   -2.1354   -0.9495    1.5495 C   0  0  0  0  0  0
   -3.5319   -0.9878    1.5768 C   0  0  0  0  0  0
   -4.2685   -0.2763    0.6321 C   0  0  0  0  0  0
   -3.6100    0.4719   -0.3413 C   0  0  0  0  0  0
   -2.2136    0.5107   -0.3685 C   0  0  0  0  0  0
    3.4226    2.4718    1.0754 O   0  0  0  0  0  0
    0.3974    2.3412    0.9162 C   0  0  0  0  0  0
    0.5492    3.1957   -0.3359 C   0  0  0  0  0  0
    0.5237   -2.1447   -0.9505 C   0  0  0  0  0  0
    1.0993   -3.5486   -1.0788 C   0  0  0  0  0  0
    0.5520   -2.1507    1.2424 H   0  0  0  0  0  0
    5.5437    0.9016    1.1037 H   0  0  0  0  0  0
    5.5190   -1.5518    0.8845 H   0  0  0  0  0  0
    3.3844   -2.7694    0.5852 H   0  0  0  0  0  0
   -1.5805   -1.5078    2.3020 H   0  0  0  0  0  0
   -4.0441   -1.5737    2.3379 H   0  0  0  0  0  0
   -5.3564   -0.3069    0.6531 H   0  0  0  0  0  0
   -4.1830    1.0238   -1.0843 H   0  0  0  0  0  0
   -1.7190    1.0873   -1.1476 H   0  0  0  0  0  0
    4.3525    2.7548    1.1985 H   0  0  0  0  0  0
    0.9787    2.7752    1.7376 H   0  0  0  0  0  0
   -0.6456    2.3996    1.2488 H   0  0  0  0  0  0
    0.2466    4.2265   -0.1245 H   0  0  0  0  0  0
   -0.0781    2.8236   -1.1517 H   0  0  0  0  0  0
    1.5830    3.2172   -0.6932 H   0  0  0  0  0  0
    0.9072   -1.5249   -1.7714 H   0  0  0  0  0  0
   -0.5590   -2.2320   -1.1060 H   0  0  0  0  0  0
    0.7082   -4.0299   -1.9814 H   0  0  0  0  0  0
    0.8257   -4.1696   -0.2202 H   0  0  0  0  0  0
    2.1877   -3.5329   -1.1707 H   0  0  0  0  0  0
  1  2  1  0  0  0
  1  9  1  0  0  0
  1 19  1  0  0  0
  1 21  1  0  0  0
  2  3  2  0  0  0
  2 10  1  0  0  0
  3  4  1  0  0  0
  3 17  1  0  0  0
  4  5  2  0  0  0
  4  9  1  0  0  0
  5  6  1  0  0  0
  5 16  1  0  0  0
  6  7  2  0  0  0
  6 22  1  0  0  0
  7  8  1  0  0  0
  7 23  1  0  0  0
  8  9  2  0  0  0
  8 24  1  0  0  0
 10 11  2  0  0  0
 10 15  1  0  0  0
 11 12  1  0  0  0
 11 25  1  0  0  0
 12 13  2  0  0  0
 12 26  1  0  0  0
 13 14  1  0  0  0
 13 27  1  0  0  0
 14 15  2  0  0  0
 14 28  1  0  0  0
 15 29  1  0  0  0
 16 30  1  0  0  0
 17 18  1  0  0  0
 17 31  1  0  0  0
 17 32  1  0  0  0
 18 33  1  0  0  0
 18 34  1  0  0  0
 18 35  1  0  0  0
 19 20  1  0  0  0
 19 36  1  0  0  0
 19 37  1  0  0  0
 20 38  1  0  0  0
 20 39  1  0  0  0
 20 40  1  0  0  0
M  END
>  <Name>
tox-201

>  <substance>
1,3-Diethyl-4-hydroxy-2- phenylindene

>  <CASRN>


>  <from_NCI>
0

>  <RBA>
9.300000

>  <method>
RUC

>  <chemical_class>
Indene

>  <set>
0

$$$$
tox-202
  Cerius2 12190218263D 1   1.00000                          
 Structure written by MMmdl.
 40 42  0  0  0  0  0  0  0  0999 V2000
    0.7718   -1.4872    0.3857 C   0  0  0  0  0  0
   -0.0137   -0.1786    0.5347 C   0  0  0  0  0  0
    0.7822    0.9058    0.6644 C   0  0  0  0  0  0
    2.1681    0.4283    0.6608 C   0  0  0  0  0  0
    3.3527    1.1362    0.8141 C   0  0  0  0  0  0
    4.5598    0.4318    0.8315 C   0  0  0  0  0  0
    4.5623   -0.9607    0.7129 C   0  0  0  0  0  0
    3.3775   -1.6786    0.5641 C   0  0  0  0  0  0
    2.1839   -0.9683    0.5194 C   0  0  0  0  0  0
   -1.4812   -0.1946    0.5922 C   0  0  0  0  0  0
   -2.1443   -0.9997    1.5278 C   0  0  0  0  0  0
   -3.5406   -1.0324    1.5757 C   0  0  0  0  0  0
   -4.2882   -0.2649    0.6853 C   0  0  0  0  0  0
   -3.6409    0.5339   -0.2546 C   0  0  0  0  0  0
   -2.2448    0.5669   -0.3023 C   0  0  0  0  0  0
    5.7692   -1.5974    0.7566 O   0  0  0  0  0  0
    0.4241    2.3408    0.8970 C   0  0  0  0  0  0
    0.6209    3.2041   -0.3422 C   0  0  0  0  0  0
    0.4727   -2.1624   -0.9664 C   0  0  0  0  0  0
    1.0417   -3.5688   -1.0966 C   0  0  0  0  0  0
    0.5523   -2.1571    1.2256 H   0  0  0  0  0  0
    3.3578    2.2161    0.9304 H   0  0  0  0  0  0
    5.4970    0.9713    0.9516 H   0  0  0  0  0  0
    3.3838   -2.7614    0.5001 H   0  0  0  0  0  0
   -1.5823   -1.6028    2.2392 H   0  0  0  0  0  0
   -4.0439   -1.6581    2.3107 H   0  0  0  0  0  0
   -5.3758   -0.2913    0.7224 H   0  0  0  0  0  0
   -4.2224    1.1299   -0.9557 H   0  0  0  0  0  0
   -1.7602    1.1848   -1.0557 H   0  0  0  0  0  0
    5.6145   -2.5615    0.6613 H   0  0  0  0  0  0
    1.0220    2.7449    1.7230 H   0  0  0  0  0  0
   -0.6182    2.4293    1.2235 H   0  0  0  0  0  0
    0.3214    4.2359   -0.1314 H   0  0  0  0  0  0
    0.0167    2.8434   -1.1806 H   0  0  0  0  0  0
    1.6673    3.2198   -0.6627 H   0  0  0  0  0  0
    0.8416   -1.5492   -1.7988 H   0  0  0  0  0  0
   -0.6131   -2.2468   -1.0992 H   0  0  0  0  0  0
    0.6363   -4.0527   -1.9915 H   0  0  0  0  0  0
    0.7776   -4.1850   -0.2316 H   0  0  0  0  0  0
    2.1287   -3.5576   -1.2028 H   0  0  0  0  0  0
  1  2  1  0  0  0
  1  9  1  0  0  0
  1 19  1  0  0  0
  1 21  1  0  0  0
  2  3  2  0  0  0
  2 10  1  0  0  0
  3  4  1  0  0  0
  3 17  1  0  0  0
  4  5  2  0  0  0
  4  9  1  0  0  0
  5  6  1  0  0  0
  5 22  1  0  0  0
  6  7  2  0  0  0
  6 23  1  0  0  0
  7  8  1  0  0  0
  7 16  1  0  0  0
  8  9  2  0  0  0
  8 24  1  0  0  0
 10 11  2  0  0  0
 10 15  1  0  0  0
 11 12  1  0  0  0
 11 25  1  0  0  0
 12 13  2  0  0  0
 12 26  1  0  0  0
 13 14  1  0  0  0
 13 27  1  0  0  0
 14 15  2  0  0  0
 14 28  1  0  0  0
 15 29  1  0  0  0
 16 30  1  0  0  0
 17 18  1  0  0  0
 17 31  1  0  0  0
 17 32  1  0  0  0
 18 33  1  0  0  0
 18 34  1  0  0  0
 18 35  1  0  0  0
 19 20  1  0  0  0
 19 36  1  0  0  0
 19 37  1  0  0  0
 20 38  1  0  0  0
 20 39  1  0  0  0
 20 40  1  0  0  0
M  END
>  <Name>
tox-202

>  <substance>
1,3-Diethyl-6-hydroxy 2-phenylindene

>  <CASRN>


>  <from_NCI>
0

>  <RBA>
2.200000

>  <method>
RUC

>  <chemical_class>
Indene

>  <set>
0

$$$$
tox-203
  Cerius2 12190218263D 1   1.00000                          
 Structure written by MMmdl.
 44 45  0  0  0  0  0  0  0  0999 V2000
   -3.6368    1.2339   -2.0947 C   0  0  0  0  0  0
   -3.2063    0.9472   -0.8055 C   0  0  0  0  0  0
   -2.0814    0.1409   -0.6127 C   0  0  0  0  0  0
   -1.3813   -0.3872   -1.7091 C   0  0  0  0  0  0
   -1.8330   -0.0761   -3.0040 C   0  0  0  0  0  0
   -2.9584    0.7297   -3.1975 C   0  0  0  0  0  0
   -4.7385    2.0240   -2.2425 O   0  0  0  0  0  0
   -0.1329   -1.2665   -1.5391 C   0  0  0  0  0  0
    1.1628   -0.3787   -1.4822 C   0  0  0  0  0  0
    1.3587    0.3892   -0.1762 C   0  0  0  0  0  0
    1.9182   -0.1970    0.9674 C   0  0  0  0  0  0
    2.0866    0.5399    2.1443 C   0  0  0  0  0  0
    1.7112    1.8850    2.2019 C   0  0  0  0  0  0
    1.1418    2.4755    1.0709 C   0  0  0  0  0  0
    0.9743    1.7383   -0.1049 C   0  0  0  0  0  0
    1.8600    2.6645    3.4752 C   0  0  0  0  0  0
    2.4316   -1.1465   -1.9327 C   0  0  0  0  0  0
    3.5879   -0.2176   -2.2949 C   0  0  0  0  0  0
   -0.3451   -2.3237   -0.4276 C   0  0  0  0  0  0
    0.5905   -3.5220   -0.4928 C   0  0  0  0  0  0
   -3.7367    1.3499    0.0544 H   0  0  0  0  0  0
   -1.7531   -0.0584    0.4060 H   0  0  0  0  0  0
   -1.3077   -0.4609   -3.8779 H   0  0  0  0  0  0
   -3.2858    0.9518   -4.2104 H   0  0  0  0  0  0
   -4.9135    2.1330   -3.2017 H   0  0  0  0  0  0
   -0.0701   -1.8449   -2.4734 H   0  0  0  0  0  0
    1.0284    0.3851   -2.2646 H   0  0  0  0  0  0
    2.2285   -1.2395    0.9657 H   0  0  0  0  0  0
    2.5160    0.0508    3.0181 H   0  0  0  0  0  0
    0.8223    3.5167    1.0940 H   0  0  0  0  0  0
    0.5291    2.2294   -0.9700 H   0  0  0  0  0  0
    2.0331    3.7252    3.2654 H   0  0  0  0  0  0
    2.7160    2.3046    4.0557 H   0  0  0  0  0  0
    0.9545    2.5664    4.0817 H   0  0  0  0  0  0
    2.1966   -1.7464   -2.8203 H   0  0  0  0  0  0
    2.7845   -1.8407   -1.1670 H   0  0  0  0  0  0
    4.4389   -0.8033   -2.6573 H   0  0  0  0  0  0
    3.9258    0.3617   -1.4305 H   0  0  0  0  0  0
    3.2981    0.4800   -3.0871 H   0  0  0  0  0  0
   -1.3653   -2.7221   -0.5205 H   0  0  0  0  0  0
   -0.2935   -1.8775    0.5708 H   0  0  0  0  0  0
    0.2192   -4.3175    0.1623 H   0  0  0  0  0  0
    1.5952   -3.2737   -0.1485 H   0  0  0  0  0  0
    0.6526   -3.9264   -1.5076 H   0  0  0  0  0  0
  1  2  2  0  0  0
  1  6  1  0  0  0
  1  7  1  0  0  0
  2  3  1  0  0  0
  2 21  1  0  0  0
  3  4  2  0  0  0
  3 22  1  0  0  0
  4  5  1  0  0  0
  4  8  1  0  0  0
  5  6  2  0  0  0
  5 23  1  0  0  0
  6 24  1  0  0  0
  7 25  1  0  0  0
  8  9  1  0  0  0
  8 19  1  0  0  0
  8 26  1  0  0  0
  9 10  1  0  0  0
  9 17  1  0  0  0
  9 27  1  0  0  0
 10 11  2  0  0  0
 10 15  1  0  0  0
 11 12  1  0  0  0
 11 28  1  0  0  0
 12 13  2  0  0  0
 12 29  1  0  0  0
 13 14  1  0  0  0
 13 16  1  0  0  0
 14 15  2  0  0  0
 14 30  1  0  0  0
 15 31  1  0  0  0
 16 32  1  0  0  0
 16 33  1  0  0  0
 16 34  1  0  0  0
 17 18  1  0  0  0
 17 35  1  0  0  0
 17 36  1  0  0  0
 18 37  1  0  0  0
 18 38  1  0  0  0
 18 39  1  0  0  0
 19 20  1  0  0  0
 19 40  1  0  0  0
 19 41  1  0  0  0
 20 42  1  0  0  0
 20 43  1  0  0  0
 20 44  1  0  0  0
M  END
>  <Name>
tox-203

>  <substance>
meso-p -(a,b-Diethyl-p - methylphenethyl)phenol

>  <CASRN>
267408-76-4

>  <from_NCI>
0

>  <RBA>
4.000000

>  <method>
RUC

>  <chemical_class>
Phenol

>  <set>
0

$$$$
tox-204
  Cerius2 12190218263D 1   1.00000                          
 Structure written by MMmdl.
 30 30  0  0  0  0  0  0  0  0999 V2000
    0.6531   -0.0318   -0.0588 C   0  0  0  0  0  0
   -0.5837    0.0460   -0.7112 C   0  0  0  0  0  0
    1.2793    1.1693    0.5309 C   0  0  0  0  0  0
    1.2757   -1.2784    0.1090 C   0  0  0  0  0  0
   -1.2256    1.3508   -0.9723 C   0  0  0  0  0  0
   -1.1912   -1.1229   -1.1956 C   0  0  0  0  0  0
    2.5861    1.2062    0.1732 O   0  0  0  0  0  0
    0.6868    1.9831    1.2219 O   0  0  0  0  0  0
    0.6658   -2.4367   -0.3760 C   0  0  0  0  0  0
   -2.5328    1.2775   -0.6217 O   0  0  0  0  0  0
   -0.6439    2.3230   -1.4273 O   0  0  0  0  0  0
   -0.5662   -2.3595   -1.0243 C   0  0  0  0  0  0
    3.3138    2.3351    0.6805 C   0  0  0  0  0  0
   -3.2751    2.4898   -0.8223 C   0  0  0  0  0  0
    4.7485    2.2254    0.2037 C   0  0  0  0  0  0
   -4.7084    2.2425   -0.3951 C   0  0  0  0  0  0
    2.2288   -1.3579    0.6294 H   0  0  0  0  0  0
   -2.1439   -1.0773   -1.7206 H   0  0  0  0  0  0
    1.1503   -3.4030   -0.2428 H   0  0  0  0  0  0
   -1.0391   -3.2646   -1.4027 H   0  0  0  0  0  0
    3.2840    2.3299    1.7757 H   0  0  0  0  0  0
    2.8651    3.2606    0.3028 H   0  0  0  0  0  0
   -3.2452    2.7683   -1.8815 H   0  0  0  0  0  0
   -2.8387    3.2918   -0.2166 H   0  0  0  0  0  0
    5.3455    3.0670    0.5659 H   0  0  0  0  0  0
    4.7907    2.2064   -0.8903 H   0  0  0  0  0  0
    5.2014    1.2927    0.5559 H   0  0  0  0  0  0
   -5.3164    3.1414   -0.5299 H   0  0  0  0  0  0
   -4.7505    1.9413    0.6568 H   0  0  0  0  0  0
   -5.1489    1.4266   -0.9776 H   0  0  0  0  0  0
  1  2  2  0  0  0
  1  3  1  0  0  0
  1  4  1  0  0  0
  2  5  1  0  0  0
  2  6  1  0  0  0
  3  7  1  0  0  0
  3  8  2  0  0  0
  4  9  2  0  0  0
  4 17  1  0  0  0
  5 10  1  0  0  0
  5 11  2  0  0  0
  6 12  2  0  0  0
  6 18  1  0  0  0
  7 13  1  0  0  0
  9 12  1  0  0  0
  9 19  1  0  0  0
 10 14  1  0  0  0
 12 20  1  0  0  0
 13 15  1  0  0  0
 13 21  1  0  0  0
 13 22  1  0  0  0
 14 16  1  0  0  0
 14 23  1  0  0  0
 14 24  1  0  0  0
 15 25  1  0  0  0
 15 26  1  0  0  0
 15 27  1  0  0  0
 16 28  1  0  0  0
 16 29  1  0  0  0
 16 30  1  0  0  0
M  END
>  <Name>
tox-204

>  <substance>
Diethyl phthalate

>  <CASRN>
84-66-2

>  <from_NCI>
1

>  <RBA>
0.000000

>  <method>
RUC

>  <chemical_class>
Phthalate

>  <set>
2

$$$$
tox-205
  Cerius2 12190218263D 1   1.00000                          
 Structure written by MMmdl.
 48 51  0  0  0  0  0  0  0  0999 V2000
    2.6882    2.3811   -1.1649 C   0  0  0  0  0  0
    3.8535    1.7065   -0.8296 C   0  0  0  0  0  0
    3.8101    0.3713   -0.4594 C   0  0  0  0  0  0
    2.5818   -0.2993   -0.4445 C   0  0  0  0  0  0
    1.3879    0.3454   -0.8137 C   0  0  0  0  0  0
    0.0665   -0.3457   -0.7849 C   0  0  0  0  0  0
    0.0075   -1.8767   -0.8944 C   0  0  0  0  0  0
   -1.4482   -2.4009   -0.9582 C   0  0  0  0  0  0
   -2.3893   -1.6401   -0.0720 C   0  0  0  0  0  0
   -3.4795   -2.2985    0.5213 C   0  0  0  0  0  0
   -4.3471   -1.5980    1.3472 C   0  0  0  0  0  0
   -4.1454   -0.2490    1.5944 C   0  0  0  0  0  0
   -3.0686    0.4084    0.9884 C   0  0  0  0  0  0
   -2.1926   -0.2640    0.1181 C   0  0  0  0  0  0
   -1.0277    0.4134   -0.5213 C   0  0  0  0  0  0
   -1.0451    1.9378   -0.7099 C   0  0  0  0  0  0
    0.1947    2.4431   -1.4881 C   0  0  0  0  0  0
    1.4542    1.7101   -1.1326 C   0  0  0  0  0  0
    5.0288    2.3955   -0.8648 O   0  0  0  0  0  0
   -5.3869   -2.2752    1.9106 O   0  0  0  0  0  0
   -2.3078    2.4213   -1.4810 C   0  0  0  0  0  0
   -2.4361    3.9393   -1.5468 C   0  0  0  0  0  0
    0.7488   -2.4058   -2.1567 C   0  0  0  0  0  0
    0.8452   -3.9265   -2.2128 C   0  0  0  0  0  0
    2.7350    3.4323   -1.4429 H   0  0  0  0  0  0
    4.7122   -0.1655   -0.1755 H   0  0  0  0  0  0
    2.5816   -1.3392   -0.1234 H   0  0  0  0  0  0
    0.4772   -2.2938    0.0070 H   0  0  0  0  0  0
   -1.4551   -3.4603   -0.6731 H   0  0  0  0  0  0
   -1.8406   -2.3379   -1.9821 H   0  0  0  0  0  0
   -3.6430   -3.3599    0.3445 H   0  0  0  0  0  0
   -4.8055    0.3090    2.2543 H   0  0  0  0  0  0
   -2.9252    1.4608    1.2259 H   0  0  0  0  0  0
   -1.0277    2.3975    0.2878 H   0  0  0  0  0  0
    0.3265    3.5134   -1.2865 H   0  0  0  0  0  0
    0.0469    2.3326   -2.5708 H   0  0  0  0  0  0
    5.7524    1.7862   -0.6041 H   0  0  0  0  0  0
   -5.9024   -1.6479    2.4616 H   0  0  0  0  0  0
   -3.2259    2.0446   -1.0229 H   0  0  0  0  0  0
   -2.2983    2.0187   -2.5023 H   0  0  0  0  0  0
   -3.3921    4.2138   -2.0046 H   0  0  0  0  0  0
   -1.6435    4.3879   -2.1524 H   0  0  0  0  0  0
   -2.4024    4.3789   -0.5451 H   0  0  0  0  0  0
    1.7702   -2.0206   -2.2125 H   0  0  0  0  0  0
    0.2453   -2.0457   -3.0634 H   0  0  0  0  0  0
    1.4662   -4.2303   -3.0620 H   0  0  0  0  0  0
   -0.1362   -4.3911   -2.3437 H   0  0  0  0  0  0
    1.3017   -4.3238   -1.3009 H   0  0  0  0  0  0
  1  2  2  0  0  0
  1 18  1  0  0  0
  1 25  1  0  0  0
  2  3  1  0  0  0
  2 19  1  0  0  0
  3  4  2  0  0  0
  3 26  1  0  0  0
  4  5  1  0  0  0
  4 27  1  0  0  0
  5  6  1  0  0  0
  5 18  2  0  0  0
  6  7  1  0  0  0
  6 15  2  0  0  0
  7  8  1  0  0  0
  7 23  1  0  0  0
  7 28  1  0  0  0
  8  9  1  0  0  0
  8 29  1  0  0  0
  8 30  1  0  0  0
  9 10  1  0  0  0
  9 14  2  0  0  0
 10 11  2  0  0  0
 10 31  1  0  0  0
 11 12  1  0  0  0
 11 20  1  0  0  0
 12 13  2  0  0  0
 12 32  1  0  0  0
 13 14  1  0  0  0
 13 33  1  0  0  0
 14 15  1  0  0  0
 15 16  1  0  0  0
 16 17  1  0  0  0
 16 21  1  0  0  0
 16 34  1  0  0  0
 17 18  1  0  0  0
 17 35  1  0  0  0
 17 36  1  0  0  0
 19 37  1  0  0  0
 20 38  1  0  0  0
 21 22  1  0  0  0
 21 39  1  0  0  0
 21 40  1  0  0  0
 22 41  1  0  0  0
 22 42  1  0  0  0
 22 43  1  0  0  0
 23 24  1  0  0  0
 23 44  1  0  0  0
 23 45  1  0  0  0
 24 46  1  0  0  0
 24 47  1  0  0  0
 24 48  1  0  0  0
M  END
>  <Name>
tox-205

>  <substance>
(5R ,11R )-5,11-Diethyl-5,6,11,12- tetrahydrochrysene-2,8-diol

>  <CASRN>


>  <from_NCI>
0

>  <RBA>
23.000000

>  <method>
hERa

>  <chemical_class>
Polycyclic aromatic hydrocarbon; Phenol

>  <set>
0

$$$$
tox-206
  Cerius2 12190218263D 1   1.00000                          
 Structure written by MMmdl.
 48 51  0  0  0  0  0  0  0  0999 V2000
    2.3741    2.4668   -2.1541 C   0  0  0  0  0  0
    3.6189    1.8557   -2.0999 C   0  0  0  0  0  0
    3.7403    0.5383   -1.6816 C   0  0  0  0  0  0
    2.5959   -0.1807   -1.3160 C   0  0  0  0  0  0
    1.3215    0.4075   -1.3558 C   0  0  0  0  0  0
    0.0738   -0.3290   -1.0002 C   0  0  0  0  0  0
    0.0942   -1.8553   -0.9615 C   0  0  0  0  0  0
   -1.2511   -2.4072   -1.4716 C   0  0  0  0  0  0
   -2.4208   -1.7357   -0.7976 C   0  0  0  0  0  0
   -3.6050   -2.4551   -0.5734 C   0  0  0  0  0  0
   -4.6924   -1.8280    0.0183 C   0  0  0  0  0  0
   -4.6234   -0.4908    0.3822 C   0  0  0  0  0  0
   -3.4477    0.2316    0.1457 C   0  0  0  0  0  0
   -2.3275   -0.3723   -0.4475 C   0  0  0  0  0  0
   -1.0645    0.3659   -0.7404 C   0  0  0  0  0  0
   -1.0825    1.8924   -0.7689 C   0  0  0  0  0  0
   -0.1284    2.4042   -1.8655 C   0  0  0  0  0  0
    1.2278    1.7516   -1.7739 C   0  0  0  0  0  0
    4.7094    2.5848   -2.4707 O   0  0  0  0  0  0
   -5.8224   -2.5615    0.2261 O   0  0  0  0  0  0
   -0.7473    2.4608    0.6321 C   0  0  0  0  0  0
   -0.9853    3.9607    0.7484 C   0  0  0  0  0  0
    0.4468   -2.3528    0.4620 C   0  0  0  0  0  0
    0.7285   -3.8482    0.5267 C   0  0  0  0  0  0
    2.2930    3.4981   -2.4913 H   0  0  0  0  0  0
    4.7108    0.0495   -1.6351 H   0  0  0  0  0  0
    2.7349   -1.2102   -0.9944 H   0  0  0  0  0  0
    0.8506   -2.2340   -1.6609 H   0  0  0  0  0  0
   -1.2991   -3.4930   -1.3398 H   0  0  0  0  0  0
   -1.3383   -2.2205   -2.5508 H   0  0  0  0  0  0
   -3.6758   -3.5023   -0.8605 H   0  0  0  0  0  0
   -5.4695    0.0106    0.8464 H   0  0  0  0  0  0
   -3.4353    1.2768    0.4458 H   0  0  0  0  0  0
   -2.0800    2.2464   -1.0596 H   0  0  0  0  0  0
   -0.0374    3.4944   -1.8216 H   0  0  0  0  0  0
   -0.5448    2.1660   -2.8539 H   0  0  0  0  0  0
    5.5056    2.0187   -2.3794 H   0  0  0  0  0  0
   -6.4939   -1.9829    0.6467 H   0  0  0  0  0  0
    0.2941    2.2461    0.9013 H   0  0  0  0  0  0
   -1.3634    1.9658    1.3924 H   0  0  0  0  0  0
   -0.8385    4.2828    1.7845 H   0  0  0  0  0  0
   -2.0076    4.2202    0.4563 H   0  0  0  0  0  0
   -0.2896    4.5308    0.1268 H   0  0  0  0  0  0
   -0.3568   -2.1135    1.1692 H   0  0  0  0  0  0
    1.3378   -1.8297    0.8298 H   0  0  0  0  0  0
    1.0772   -4.1194    1.5286 H   0  0  0  0  0  0
    1.5057   -4.1330   -0.1893 H   0  0  0  0  0  0
   -0.1682   -4.4390    0.3213 H   0  0  0  0  0  0
  1  2  2  0  0  0
  1 18  1  0  0  0
  1 25  1  0  0  0
  2  3  1  0  0  0
  2 19  1  0  0  0
  3  4  2  0  0  0
  3 26  1  0  0  0
  4  5  1  0  0  0
  4 27  1  0  0  0
  5  6  1  0  0  0
  5 18  2  0  0  0
  6  7  1  0  0  0
  6 15  2  0  0  0
  7  8  1  0  0  0
  7 23  1  0  0  0
  7 28  1  0  0  0
  8  9  1  0  0  0
  8 29  1  0  0  0
  8 30  1  0  0  0
  9 10  1  0  0  0
  9 14  2  0  0  0
 10 11  2  0  0  0
 10 31  1  0  0  0
 11 12  1  0  0  0
 11 20  1  0  0  0
 12 13  2  0  0  0
 12 32  1  0  0  0
 13 14  1  0  0  0
 13 33  1  0  0  0
 14 15  1  0  0  0
 15 16  1  0  0  0
 16 17  1  0  0  0
 16 21  1  0  0  0
 16 34  1  0  0  0
 17 18  1  0  0  0
 17 35  1  0  0  0
 17 36  1  0  0  0
 19 37  1  0  0  0
 20 38  1  0  0  0
 21 22  1  0  0  0
 21 39  1  0  0  0
 21 40  1  0  0  0
 22 41  1  0  0  0
 22 42  1  0  0  0
 22 43  1  0  0  0
 23 24  1  0  0  0
 23 44  1  0  0  0
 23 45  1  0  0  0
 24 46  1  0  0  0
 24 47  1  0  0  0
 24 48  1  0  0  0
M  END
>  <Name>
tox-206

>  <substance>
(5S ,11S )-5,11-Diethyl-5,6,11,12- tetrahydrochrysene-2,8-diol

>  <CASRN>


>  <from_NCI>
0

>  <RBA>
0.900000

>  <method>
hERa

>  <chemical_class>
Polycyclic aromatic hydrocarbon; Phenol

>  <set>
0

$$$$
tox-208
  Cerius2 12190218263D 1   1.00000                          
 Structure written by MMmdl.
 30 31  0  0  0  0  0  0  0  0999 V2000
    0.2485    0.8007   -0.5549 C   0  0  0  0  0  0
   -1.0784    1.3475   -1.0385 C   0  0  0  0  0  0
    1.5026    1.2096   -1.1206 C   0  0  0  0  0  0
    0.1899   -0.0908    0.5402 C   0  0  0  0  0  0
   -2.2861    0.4582   -1.0886 C   0  0  0  0  0  0
   -1.2334    2.5434   -1.2952 O   0  0  0  0  0  0
    2.6460    0.6373   -0.4967 C   0  0  0  0  0  0
    1.6532    2.0035   -2.1123 O   0  0  0  0  0  0
    1.3515   -0.6134    1.1011 C   0  0  0  0  0  0
   -2.3812   -0.6749   -1.9543 C   0  0  0  0  0  0
   -3.3340    0.8445   -0.2221 C   0  0  0  0  0  0
    2.5890   -0.2535    0.5873 C   0  0  0  0  0  0
   -3.5979   -1.3859   -1.8334 C   0  0  0  0  0  0
   -1.4935   -1.0489   -2.7932 O   0  0  0  0  0  0
   -4.5055    0.1027   -0.1565 C   0  0  0  0  0  0
    3.6591   -0.8262    1.2178 O   0  0  0  0  0  0
   -4.6355   -1.0182   -0.9609 C   0  0  0  0  0  0
    4.9567   -0.4828    0.7343 C   0  0  0  0  0  0
   -0.7642   -0.3778    0.9781 H   0  0  0  0  0  0
    3.6221    0.9173   -0.8991 H   0  0  0  0  0  0
    1.2816   -1.2979    1.9440 H   0  0  0  0  0  0
   -3.2247    1.7248    0.4097 H   0  0  0  0  0  0
   -3.7633   -2.2734   -2.4527 H   0  0  0  0  0  0
   -5.3081    0.3963    0.5162 H   0  0  0  0  0  0
   -5.5461   -1.6143   -0.9242 H   0  0  0  0  0  0
    5.6909   -1.0178    1.3442 H   0  0  0  0  0  0
    5.1470    0.5895    0.8466 H   0  0  0  0  0  0
    5.0869   -0.8047   -0.3041 H   0  0  0  0  0  0
    2.4820    2.1020   -2.2731 H   0  0  0  0  0  0
   -1.7627   -1.7457   -3.1988 H   0  0  0  0  0  0
  1  2  1  0  0  0
  1  3  2  0  0  0
  1  4  1  0  0  0
  2  5  1  0  0  0
  2  6  2  0  0  0
  3  7  1  0  0  0
  3  8  1  0  0  0
  4  9  2  0  0  0
  4 19  1  0  0  0
  5 10  2  0  0  0
  5 11  1  0  0  0
  7 12  2  0  0  0
  7 20  1  0  0  0
  8 29  1  0  0  0
  9 12  1  0  0  0
  9 21  1  0  0  0
 10 13  1  0  0  0
 10 14  1  0  0  0
 11 15  2  0  0  0
 11 22  1  0  0  0
 12 16  1  0  0  0
 13 17  2  0  0  0
 13 23  1  0  0  0
 14 30  1  0  0  0
 15 17  1  0  0  0
 15 24  1  0  0  0
 16 18  1  0  0  0
 17 25  1  0  0  0
 18 26  1  0  0  0
 18 27  1  0  0  0
 18 28  1  0  0  0
M  END
>  <Name>
tox-208

>  <substance>
2,2'-Dihydroxy-4- methoxybenzophenone

>  <CASRN>
131-53-3

>  <from_NCI>
1

>  <RBA>
0.000000

>  <method>
RUC

>  <chemical_class>
Benzophenone

>  <set>
0

$$$$
tox-209
  Cerius2 12190218263D 1   1.00000                          
 Structure written by MMmdl.
 26 27  0  0  0  0  0  0  0  0999 V2000
   -2.0619    1.8927   -2.0116 O   0  0  0  0  0  0
   -2.2110    0.9461   -1.1661 C   0  0  0  0  0  0
   -3.3763    0.1449   -1.1877 C   0  0  0  0  0  0
   -3.6047   -0.9266   -0.3092 C   0  0  0  0  0  0
   -2.6607   -1.2535    0.6511 C   0  0  0  0  0  0
   -1.4929   -0.5061    0.7302 C   0  0  0  0  0  0
   -1.2681    0.5712   -0.1559 C   0  0  0  0  0  0
    0.0288    1.3097    0.0394 C   0  0  0  0  0  0
    0.0423    2.5154    0.2849 O   0  0  0  0  0  0
    1.3089    0.5261   -0.0752 C   0  0  0  0  0  0
    1.5150   -0.1224   -1.3134 C   0  0  0  0  0  0
    2.6663   -0.8660   -1.5379 C   0  0  0  0  0  0
    3.6122   -0.9619   -0.5298 C   0  0  0  0  0  0
    3.4023   -0.3157    0.6991 C   0  0  0  0  0  0
    2.2545    0.4549    0.9975 C   0  0  0  0  0  0
    2.1214    0.9976    2.1469 O   0  0  0  0  0  0
   -4.1561    0.3528   -1.9276 H   0  0  0  0  0  0
   -4.5269   -1.5004   -0.3862 H   0  0  0  0  0  0
   -2.8332   -2.0811    1.3355 H   0  0  0  0  0  0
   -0.7570   -0.7556    1.4933 H   0  0  0  0  0  0
    0.7777   -0.0372   -2.1104 H   0  0  0  0  0  0
    2.8244   -1.3628   -2.4925 H   0  0  0  0  0  0
    4.5216   -1.5398   -0.6873 H   0  0  0  0  0  0
    4.1826   -0.4311    1.4583 H   0  0  0  0  0  0
   -1.3183    2.2809   -1.8741 H   0  0  0  0  0  0
    2.8039    0.8241    2.6229 H   0  0  0  0  0  0
  1  2  1  0  0  0
  1 25  1  0  0  0
  2  3  2  0  0  0
  2  7  1  0  0  0
  3  4  1  0  0  0
  3 17  1  0  0  0
  4  5  2  0  0  0
  4 18  1  0  0  0
  5  6  1  0  0  0
  5 19  1  0  0  0
  6  7  2  0  0  0
  6 20  1  0  0  0
  7  8  1  0  0  0
  8  9  2  0  0  0
  8 10  1  0  0  0
 10 11  2  0  0  0
 10 15  1  0  0  0
 11 12  1  0  0  0
 11 21  1  0  0  0
 12 13  2  0  0  0
 12 22  1  0  0  0
 13 14  1  0  0  0
 13 23  1  0  0  0
 14 15  2  0  0  0
 14 24  1  0  0  0
 15 16  1  0  0  0
 16 26  1  0  0  0
M  END
>  <Name>
tox-209

>  <substance>
2,2'-Dihydroxybenzophenone

>  <CASRN>
835-11-0

>  <from_NCI>
1

>  <RBA>
0.000000

>  <method>
RUC

>  <chemical_class>
Benzophenone

>  <set>
1

$$$$
tox-210
  Cerius2 12190218263D 1   1.00000                          
 Structure written by MMmdl.
 26 27  0  0  0  0  0  0  0  0999 V2000
   -1.2102   -0.6379    0.1791 C   0  0  0  0  0  0
    0.1438   -1.2551    0.2417 C   0  0  0  0  0  0
   -2.0740   -0.8269   -0.9312 C   0  0  0  0  0  0
   -1.5786    0.1192    1.3007 C   0  0  0  0  0  0
    1.3329   -0.5398   -0.3181 C   0  0  0  0  0  0
    0.2684   -2.3406    0.8117 O   0  0  0  0  0  0
   -3.3255   -0.1614   -0.7980 C   0  0  0  0  0  0
   -1.8033   -1.5180   -1.9722 O   0  0  0  0  0  0
   -2.8296    0.7376    1.3476 C   0  0  0  0  0  0
    2.5867   -1.1656   -0.2447 C   0  0  0  0  0  0
    1.2418    0.7359   -0.8908 C   0  0  0  0  0  0
   -3.7574    0.6280    0.3032 C   0  0  0  0  0  0
    3.7277   -0.5278   -0.7380 C   0  0  0  0  0  0
    2.3859    1.3713   -1.3830 C   0  0  0  0  0  0
   -4.8986    1.1889    0.3387 O   0  0  0  0  0  0
    3.6263    0.7401   -1.3066 C   0  0  0  0  0  0
   -0.8951    0.2324    2.1401 H   0  0  0  0  0  0
   -4.0338   -0.2703   -1.6324 H   0  0  0  0  0  0
   -3.0752    1.3217    2.2383 H   0  0  0  0  0  0
    2.6860   -2.1550    0.1984 H   0  0  0  0  0  0
    0.2891    1.2552   -0.9666 H   0  0  0  0  0  0
    4.6960   -1.0217   -0.6770 H   0  0  0  0  0  0
    2.3070    2.3622   -1.8275 H   0  0  0  0  0  0
    4.5152    1.2377   -1.6908 H   0  0  0  0  0  0
   -2.4629   -1.4937   -2.5078 H   0  0  0  0  0  0
   -4.9819    1.6159    1.0689 H   0  0  0  0  0  0
  1  2  1  0  0  0
  1  3  2  0  0  0
  1  4  1  0  0  0
  2  5  1  0  0  0
  2  6  2  0  0  0
  3  7  1  0  0  0
  3  8  1  0  0  0
  4  9  2  0  0  0
  4 17  1  0  0  0
  5 10  2  0  0  0
  5 11  1  0  0  0
  7 12  2  0  0  0
  7 18  1  0  0  0
  8 25  1  0  0  0
  9 12  1  0  0  0
  9 19  1  0  0  0
 10 13  1  0  0  0
 10 20  1  0  0  0
 11 14  2  0  0  0
 11 21  1  0  0  0
 12 15  1  0  0  0
 13 16  2  0  0  0
 13 22  1  0  0  0
 14 16  1  0  0  0
 14 23  1  0  0  0
 15 26  1  0  0  0
 16 24  1  0  0  0
M  END
>  <Name>
tox-210

>  <substance>
2,4-Dihydroxybenzophenone

>  <CASRN>
131-56-6

>  <from_NCI>
1

>  <RBA>
0.002000

>  <method>
RUC

>  <chemical_class>
Benzophenone

>  <set>
1

$$$$
tox-211
  Cerius2 12190218263D 1   1.00000                          
 Structure written by MMmdl.
 53 56  0  0  0  0  0  0  0  0999 V2000
    2.0320   -2.3464   -0.4740 O   0  0  0  0  0  0
    1.0128   -1.4230   -0.5246 C   0  0  0  0  0  0
   -0.3297   -1.8154   -0.4658 C   0  0  0  0  0  0
   -0.7348   -3.2567   -0.4577 C   0  0  0  0  0  0
   -0.0971   -4.1840    0.3163 C   0  0  0  0  0  0
    1.0700   -3.8345    1.1914 C   0  0  0  0  0  0
    2.0948   -2.9802    0.7476 C   0  0  0  0  0  0
   -1.2990   -0.8012   -0.5070 C   0  0  0  0  0  0
   -0.9378    0.5507   -0.6109 C   0  0  0  0  0  0
    0.4041    0.9166   -0.6900 C   0  0  0  0  0  0
    1.3797   -0.0786   -0.6514 C   0  0  0  0  0  0
    3.2410   -2.7372    1.5143 C   0  0  0  0  0  0
    3.3713   -3.3218    2.7691 C   0  0  0  0  0  0
    2.3618   -4.1507    3.2471 C   0  0  0  0  0  0
    1.2284   -4.4073    2.4649 C   0  0  0  0  0  0
   -1.8253   -3.7103   -1.3677 C   0  0  0  0  0  0
   -1.5218   -4.0658   -2.6897 C   0  0  0  0  0  0
   -2.5338   -4.4752   -3.5605 C   0  0  0  0  0  0
   -3.8557   -4.5246   -3.1202 C   0  0  0  0  0  0
   -4.1687   -4.1619   -1.8110 C   0  0  0  0  0  0
   -3.1584   -3.7525   -0.9382 C   0  0  0  0  0  0
   -0.4284   -5.6793    0.2924 C   0  0  0  0  0  0
   -1.5849   -6.1013    1.1936 C   0  0  0  0  0  0
    0.8866    2.1908   -0.8039 O   0  0  0  0  0  0
   -0.0803    3.2554   -0.8396 C   0  0  0  0  0  0
    0.6677    4.5925   -0.9712 C   0  0  0  0  0  0
   -0.2861    5.7848   -0.8243 C   0  0  0  0  0  0
   -0.8445    5.8457    0.4866 O   0  0  0  0  0  0
    1.3182    4.6499   -2.2544 O   0  0  0  0  0  0
   -2.3593   -1.0435   -0.4626 H   0  0  0  0  0  0
   -1.7384    1.2854   -0.6368 H   0  0  0  0  0  0
    2.4326    0.1889   -0.7073 H   0  0  0  0  0  0
    4.0232   -2.0822    1.1370 H   0  0  0  0  0  0
    4.2549   -3.1292    3.3743 H   0  0  0  0  0  0
    2.4554   -4.6099    4.2301 H   0  0  0  0  0  0
    0.4748   -5.0699    2.8810 H   0  0  0  0  0  0
   -0.4940   -4.0283   -3.0473 H   0  0  0  0  0  0
   -2.2900   -4.7539   -4.5841 H   0  0  0  0  0  0
   -4.6441   -4.8433   -3.7999 H   0  0  0  0  0  0
   -5.2014   -4.1960   -1.4686 H   0  0  0  0  0  0
   -3.4176   -3.4673    0.0801 H   0  0  0  0  0  0
    0.4615   -6.2611    0.5680 H   0  0  0  0  0  0
   -0.6436   -6.0066   -0.7318 H   0  0  0  0  0  0
   -1.6471   -7.1943    1.2266 H   0  0  0  0  0  0
   -2.5441   -5.7361    0.8213 H   0  0  0  0  0  0
   -1.4715   -5.7423    2.2191 H   0  0  0  0  0  0
   -0.6641    3.2440    0.0878 H   0  0  0  0  0  0
   -0.7340    3.1179   -1.7095 H   0  0  0  0  0  0
    1.4511    4.6350   -0.2052 H   0  0  0  0  0  0
   -1.0999    5.7209   -1.5553 H   0  0  0  0  0  0
    0.2512    6.7203   -1.0153 H   0  0  0  0  0  0
   -1.4171    6.6431    0.4929 H   0  0  0  0  0  0
    1.8568    5.4699   -2.2486 H   0  0  0  0  0  0
  1  2  1  0  0  0
  1  7  1  0  0  0
  2  3  2  0  0  0
  2 11  1  0  0  0
  3  4  1  0  0  0
  3  8  1  0  0  0
  4  5  2  0  0  0
  4 16  1  0  0  0
  5  6  1  0  0  0
  5 22  1  0  0  0
  6  7  2  0  0  0
  6 15  1  0  0  0
  7 12  1  0  0  0
  8  9  2  0  0  0
  8 30  1  0  0  0
  9 10  1  0  0  0
  9 31  1  0  0  0
 10 11  2  0  0  0
 10 24  1  0  0  0
 11 32  1  0  0  0
 12 13  2  0  0  0
 12 33  1  0  0  0
 13 14  1  0  0  0
 13 34  1  0  0  0
 14 15  2  0  0  0
 14 35  1  0  0  0
 15 36  1  0  0  0
 16 17  2  0  0  0
 16 21  1  0  0  0
 17 18  1  0  0  0
 17 37  1  0  0  0
 18 19  2  0  0  0
 18 38  1  0  0  0
 19 20  1  0  0  0
 19 39  1  0  0  0
 20 21  2  0  0  0
 20 40  1  0  0  0
 21 41  1  0  0  0
 22 23  1  0  0  0
 22 42  1  0  0  0
 22 43  1  0  0  0
 23 44  1  0  0  0
 23 45  1  0  0  0
 23 46  1  0  0  0
 24 25  1  0  0  0
 25 26  1  0  0  0
 25 47  1  0  0  0
 25 48  1  0  0  0
 26 27  1  0  0  0
 26 29  1  0  0  0
 26 49  1  0  0  0
 27 28  1  0  0  0
 27 50  1  0  0  0
 27 51  1  0  0  0
 28 52  1  0  0  0
 29 53  1  0  0  0
M  END
>  <Name>
tox-211

>  <substance>
3-(2,3 Dihydroxypropoxy)-10-ethyl-11-phenyldibenz[b,f ]oxepin

>  <CASRN>
85850-89-1

>  <from_NCI>
0

>  <RBA>
0.070000

>  <method>
RUC

>  <chemical_class>
Triphenylethylene

>  <set>
0

$$$$
tox-212
  Cerius2 12190218263D 1   1.00000                          
 Structure written by MMmdl.
 40 41  0  0  0  0  0  0  0  0999 V2000
    0.7922    0.4002   -0.7091 C   0  0  0  0  0  0
   -0.3429   -0.3423   -0.7771 C   0  0  0  0  0  0
   -1.6783    0.2975   -0.7015 C   0  0  0  0  0  0
   -2.2338    0.6687    0.5423 C   0  0  0  0  0  0
   -3.5010    1.2784    0.6819 C   0  0  0  0  0  0
   -4.1808    1.4973   -0.5323 C   0  0  0  0  0  0
   -3.6526    1.1416   -1.7832 C   0  0  0  0  0  0
   -2.4020    0.5415   -1.8681 C   0  0  0  0  0  0
    2.1267   -0.2333   -0.8368 C   0  0  0  0  0  0
    2.7274   -0.8838    0.2629 C   0  0  0  0  0  0
    3.9963   -1.5035    0.2069 C   0  0  0  0  0  0
    4.6284   -1.4277   -1.0496 C   0  0  0  0  0  0
    4.0546   -0.7903   -2.1608 C   0  0  0  0  0  0
    2.8044   -0.1930   -2.0546 C   0  0  0  0  0  0
   -3.9902    1.6030    1.8108 O   0  0  0  0  0  0
    4.5265   -2.0823    1.2084 O   0  0  0  0  0  0
    0.8454    1.9157   -0.5798 C   0  0  0  0  0  0
    1.2190    2.3770    0.8240 C   0  0  0  0  0  0
   -0.3982   -1.8455   -1.0090 C   0  0  0  0  0  0
   -0.7215   -2.6283    0.2582 C   0  0  0  0  0  0
   -1.6456    0.4647    1.4416 H   0  0  0  0  0  0
   -5.1694    1.9656   -0.5203 H   0  0  0  0  0  0
   -4.2258    1.3374   -2.6876 H   0  0  0  0  0  0
   -1.9986    0.2715   -2.8417 H   0  0  0  0  0  0
    2.1749   -0.8993    1.2067 H   0  0  0  0  0  0
    5.6145   -1.8815   -1.1856 H   0  0  0  0  0  0
    4.5922   -0.7655   -3.1070 H   0  0  0  0  0  0
    2.3653    0.2962   -2.9215 H   0  0  0  0  0  0
   -0.1121    2.3729   -0.8517 H   0  0  0  0  0  0
    1.5669    2.3279   -1.2967 H   0  0  0  0  0  0
    1.1928    3.4701    0.8786 H   0  0  0  0  0  0
    2.2292    2.0554    1.0967 H   0  0  0  0  0  0
    0.5218    1.9850    1.5713 H   0  0  0  0  0  0
    0.5463   -2.2209   -1.4172 H   0  0  0  0  0  0
   -1.1480   -2.0791   -1.7756 H   0  0  0  0  0  0
   -0.6993   -3.7031    0.0506 H   0  0  0  0  0  0
   -1.7190   -2.3843    0.6374 H   0  0  0  0  0  0
    0.0054   -2.4226    1.0504 H   0  0  0  0  0  0
   -4.7556    1.9548    1.6973 H   0  0  0  0  0  0
    5.2854   -2.3941    0.9864 H   0  0  0  0  0  0
  1  2  2  0  0  0
  1  9  1  0  0  0
  1 17  1  0  0  0
  2  3  1  0  0  0
  2 19  1  0  0  0
  3  4  2  0  0  0
  3  8  1  0  0  0
  4  5  1  0  0  0
  4 21  1  0  0  0
  5  6  2  0  0  0
  5 15  1  0  0  0
  6  7  1  0  0  0
  6 22  1  0  0  0
  7  8  2  0  0  0
  7 23  1  0  0  0
  8 24  1  0  0  0
  9 10  2  0  0  0
  9 14  1  0  0  0
 10 11  1  0  0  0
 10 25  1  0  0  0
 11 12  2  0  0  0
 11 16  1  0  0  0
 12 13  1  0  0  0
 12 26  1  0  0  0
 13 14  2  0  0  0
 13 27  1  0  0  0
 14 28  1  0  0  0
 15 39  1  0  0  0
 16 40  1  0  0  0
 17 18  1  0  0  0
 17 29  1  0  0  0
 17 30  1  0  0  0
 18 31  1  0  0  0
 18 32  1  0  0  0
 18 33  1  0  0  0
 19 20  1  0  0  0
 19 34  1  0  0  0
 19 35  1  0  0  0
 20 36  1  0  0  0
 20 37  1  0  0  0
 20 38  1  0  0  0
M  END
>  <Name>
tox-212

>  <substance>
3,3'-Diethylstilbestrol

>  <CASRN>
5959-71-7

>  <from_NCI>
1

>  <RBA>
3.000000

>  <method>
MCF-7 cytosol

>  <chemical_class>
Stilbene

>  <set>
2

$$$$
tox-213
  Cerius2 12190218263D 1   1.00000                          
 Structure written by MMmdl.
 44 45  0  0  0  0  0  0  0  0999 V2000
    1.1891   -1.2095   -0.5183 C   0  0  0  0  0  0
   -1.3181    1.6880   -0.6221 C   0  0  0  0  0  0
    0.0074    1.0400   -0.2032 C   0  0  0  0  0  0
   -0.0463   -0.5131    0.0730 C   0  0  0  0  0  0
    2.4350   -1.2530    0.1312 C   0  0  0  0  0  0
   -1.2980    2.8028   -1.4868 C   0  0  0  0  0  0
   -2.4509    3.5041   -1.9548 C   0  0  0  0  0  0
    3.6083   -1.8806   -0.3926 C   0  0  0  0  0  0
    3.4954   -2.5098   -1.6836 C   0  0  0  0  0  0
   -3.7305    3.0309   -1.4982 C   0  0  0  0  0  0
   -2.5601    1.2546   -0.1895 C   0  0  0  0  0  0
    1.1041   -1.8135   -1.7657 C   0  0  0  0  0  0
   -3.7202    1.9115   -0.6221 C   0  0  0  0  0  0
    2.2258   -2.4420   -2.3180 C   0  0  0  0  0  0
    4.6875   -1.8557    0.2975 O   0  0  0  0  0  0
   -2.2957    4.5015   -2.7436 O   0  0  0  0  0  0
    4.4576   -3.1116   -2.2767 O   0  0  0  0  0  0
   -4.8511    3.5538   -1.8305 O   0  0  0  0  0  0
    0.7635    1.9003    0.8460 C   0  0  0  0  0  0
   -0.3127   -0.9177    1.5419 C   0  0  0  0  0  0
   -0.0140    2.3520    2.0779 C   0  0  0  0  0  0
   -0.6259   -2.4028    1.7088 C   0  0  0  0  0  0
    0.6218    1.1235   -1.1148 H   0  0  0  0  0  0
   -0.8977   -0.9086   -0.5005 H   0  0  0  0  0  0
    2.5166   -0.7730    1.1105 H   0  0  0  0  0  0
   -0.3163    3.1544   -1.8252 H   0  0  0  0  0  0
   -2.6724    0.4102    0.4841 H   0  0  0  0  0  0
    0.1724   -1.8081   -2.3292 H   0  0  0  0  0  0
   -4.6734    1.5216   -0.2493 H   0  0  0  0  0  0
    2.0974   -2.9041   -3.3024 H   0  0  0  0  0  0
    1.1149    2.8126    0.3441 H   0  0  0  0  0  0
    1.6715    1.3826    1.1706 H   0  0  0  0  0  0
   -1.1765   -0.3664    1.9251 H   0  0  0  0  0  0
    0.5350   -0.6650    2.1873 H   0  0  0  0  0  0
    0.6269    2.9854    2.7010 H   0  0  0  0  0  0
   -0.3401    1.5172    2.6989 H   0  0  0  0  0  0
   -0.8909    2.9480    1.8088 H   0  0  0  0  0  0
   -0.8751   -2.6173    2.7531 H   0  0  0  0  0  0
    0.2281   -3.0297    1.4358 H   0  0  0  0  0  0
   -1.4812   -2.6947    1.0913 H   0  0  0  0  0  0
    5.3035   -2.2611   -0.1252 H   0  0  0  0  0  0
   -3.0557    4.8252   -2.9440 H   0  0  0  0  0  0
    4.1860   -3.4122   -3.0240 H   0  0  0  0  0  0
   -5.4844    3.1287   -1.4554 H   0  0  0  0  0  0
  1  4  1  0  0  0
  1  5  2  0  0  0
  1 12  1  0  0  0
  2  3  1  0  0  0
  2  6  2  0  0  0
  2 11  1  0  0  0
  3  4  1  0  0  0
  3 19  1  0  0  0
  3 23  1  0  0  0
  4 20  1  0  0  0
  4 24  1  0  0  0
  5  8  1  0  0  0
  5 25  1  0  0  0
  6  7  1  0  0  0
  6 26  1  0  0  0
  7 10  2  0  0  0
  7 16  1  0  0  0
  8  9  2  0  0  0
  8 15  1  0  0  0
  9 14  1  0  0  0
  9 17  1  0  0  0
 10 13  1  0  0  0
 10 18  1  0  0  0
 11 13  2  0  0  0
 11 27  1  0  0  0
 12 14  2  0  0  0
 12 28  1  0  0  0
 13 29  1  0  0  0
 14 30  1  0  0  0
 15 41  1  0  0  0
 16 42  1  0  0  0
 17 43  1  0  0  0
 18 44  1  0  0  0
 19 21  1  0  0  0
 19 31  1  0  0  0
 19 32  1  0  0  0
 20 22  1  0  0  0
 20 33  1  0  0  0
 20 34  1  0  0  0
 21 35  1  0  0  0
 21 36  1  0  0  0
 21 37  1  0  0  0
 22 38  1  0  0  0
 22 39  1  0  0  0
 22 40  1  0  0  0
M  END
>  <Name>
tox-213

>  <substance>
3,3'-Dihydroxyhexestrol

>  <CASRN>
79199-51-2

>  <from_NCI>
1

>  <RBA>
15.000000

>  <method>
RUC

>  <chemical_class>
Diphenolalkane

>  <set>
1

$$$$
tox-214
  Cerius2 12190218263D 1   1.00000                          
 Structure written by MMmdl.
 26 27  0  0  0  0  0  0  0  0999 V2000
    1.1475    0.7822    0.5244 C   0  0  0  0  0  0
   -0.0614    1.5700    0.1653 C   0  0  0  0  0  0
    1.1059   -0.6997    0.6373 C   0  0  0  0  0  0
    2.2095    1.3715    0.7331 O   0  0  0  0  0  0
   -0.2325    2.8384    0.7159 C   0  0  0  0  0  0
    2.2262   -1.4397    0.2652 C   0  0  0  0  0  0
   -0.0008   -1.3697    1.1528 C   0  0  0  0  0  0
   -1.0043    1.1009   -0.7460 C   0  0  0  0  0  0
   -2.3445    3.1729   -0.5292 C   0  0  0  0  0  0
    1.1174   -3.5637    0.8834 C   0  0  0  0  0  0
    0.0156   -2.7711    1.2634 C   0  0  0  0  0  0
    2.2182   -2.8397    0.3844 C   0  0  0  0  0  0
   -1.3554    3.6105    0.3736 C   0  0  0  0  0  0
   -2.1190    1.8926   -1.0735 C   0  0  0  0  0  0
   -3.3572    3.8790   -0.8326 O   0  0  0  0  0  0
    1.1196   -4.8307    0.9873 O   0  0  0  0  0  0
    0.4950    3.2407    1.4184 H   0  0  0  0  0  0
    3.1132   -0.9446   -0.1255 H   0  0  0  0  0  0
   -0.8830   -0.8291    1.4888 H   0  0  0  0  0  0
   -0.8923    0.1318   -1.2273 H   0  0  0  0  0  0
   -0.8787   -3.2515    1.6714 H   0  0  0  0  0  0
    3.1195   -3.3749    0.0714 H   0  0  0  0  0  0
   -1.4471    4.5962    0.8393 H   0  0  0  0  0  0
   -2.8330    1.4790   -1.7920 H   0  0  0  0  0  0
   -3.8420    3.4554   -1.3876 H   0  0  0  0  0  0
    1.8634   -5.1363    0.7118 H   0  0  0  0  0  0
  1  2  1  0  0  0
  1  3  1  0  0  0
  1  4  2  0  0  0
  2  5  2  0  0  0
  2  8  1  0  0  0
  3  6  2  0  0  0
  3  7  1  0  0  0
  5 13  1  0  0  0
  5 17  1  0  0  0
  6 12  1  0  0  0
  6 18  1  0  0  0
  7 11  2  0  0  0
  7 19  1  0  0  0
  8 14  2  0  0  0
  8 20  1  0  0  0
  9 13  2  0  0  0
  9 14  1  0  0  0
  9 15  1  0  0  0
 10 11  1  0  0  0
 10 12  2  0  0  0
 10 16  1  0  0  0
 11 21  1  0  0  0
 12 22  1  0  0  0
 13 23  1  0  0  0
 14 24  1  0  0  0
 15 25  1  0  0  0
 16 26  1  0  0  0
M  END
>  <Name>
tox-214

>  <substance>
4,4'-Dihydroxybenzophenone

>  <CASRN>
611-99-4

>  <from_NCI>
1

>  <RBA>
0.008000

>  <method>
RUC,RUC

>  <chemical_class>
Benzophenone; Phenol

>  <set>
2

$$$$
tox-215
  Cerius2 12190218263D 1   1.00000                          
 Structure written by MMmdl.
 24 25  0  0  0  0  0  0  0  0999 V2000
    0.7382    0.0000   -0.0054 C   0  0  0  0  0  0
   -0.7382    0.0000    0.0054 C   0  0  0  0  0  0
    1.4770   -1.1004    0.4421 C   0  0  0  0  0  0
    1.4704    1.1004   -0.4637 C   0  0  0  0  0  0
   -1.4770   -1.1004   -0.4421 C   0  0  0  0  0  0
   -1.4704    1.1004    0.4637 C   0  0  0  0  0  0
    2.8854   -1.0919    0.4289 C   0  0  0  0  0  0
    2.8788    1.0919   -0.4712 C   0  0  0  0  0  0
   -2.8854   -1.0919   -0.4289 C   0  0  0  0  0  0
   -2.8788    1.0918    0.4712 C   0  0  0  0  0  0
    3.6452    0.0000   -0.0268 C   0  0  0  0  0  0
   -3.6452   -0.0001    0.0268 C   0  0  0  0  0  0
    4.9165    0.0000   -0.0362 O   0  0  0  0  0  0
   -4.9165   -0.0001    0.0362 O   0  0  0  0  0  0
    0.9711   -1.9872    0.8234 H   0  0  0  0  0  0
    0.9589    1.9872   -0.8375 H   0  0  0  0  0  0
   -0.9711   -1.9872   -0.8234 H   0  0  0  0  0  0
   -0.9590    1.9872    0.8375 H   0  0  0  0  0  0
    3.3938   -1.9878    0.7971 H   0  0  0  0  0  0
    3.3818    1.9879   -0.8469 H   0  0  0  0  0  0
   -3.3938   -1.9879   -0.7971 H   0  0  0  0  0  0
   -3.3818    1.9878    0.8469 H   0  0  0  0  0  0
    5.1976    0.7409   -0.3437 H   0  0  0  0  0  0
   -5.1976    0.7408    0.3437 H   0  0  0  0  0  0
  1  2  1  0  0  0
  1  3  2  0  0  0
  1  4  1  0  0  0
  2  5  2  0  0  0
  2  6  1  0  0  0
  3  7  1  0  0  0
  3 15  1  0  0  0
  4  8  2  0  0  0
  4 16  1  0  0  0
  5  9  1  0  0  0
  5 17  1  0  0  0
  6 10  2  0  0  0
  6 18  1  0  0  0
  7 11  2  0  0  0
  7 19  1  0  0  0
  8 11  1  0  0  0
  8 20  1  0  0  0
  9 12  2  0  0  0
  9 21  1  0  0  0
 10 12  1  0  0  0
 10 22  1  0  0  0
 11 13  1  0  0  0
 12 14  1  0  0  0
 13 23  1  0  0  0
 14 24  1  0  0  0
M  END
>  <Name>
tox-215

>  <substance>
4,4'-Dihydroxybiphenyl

>  <CASRN>
92-88-6

>  <from_NCI>
1

>  <RBA>
0.000000

>  <method>
hERa,MUC

>  <chemical_class>
Biphenyldiol

>  <set>
1

$$$$
tox-216
  Cerius2 12190218263D 1   1.00000                          
 Structure written by MMmdl.
 48 51  0  0  0  0  0  0  0  0999 V2000
    2.9844    2.6114   -1.0470 C   0  0  0  0  0  0
    4.2090    2.0511   -0.7119 C   0  0  0  0  0  0
    4.2921    0.7255   -0.3105 C   0  0  0  0  0  0
    3.1304   -0.0534   -0.2481 C   0  0  0  0  0  0
    1.8748    0.4821   -0.5770 C   0  0  0  0  0  0
    0.6162   -0.3185   -0.5499 C   0  0  0  0  0  0
    0.7019   -1.8429   -0.5469 C   0  0  0  0  0  0
   -0.4536   -2.4310   -1.3798 C   0  0  0  0  0  0
   -1.7821   -1.8341   -0.9899 C   0  0  0  0  0  0
   -2.9488   -2.6095   -1.0770 C   0  0  0  0  0  0
   -4.1757   -2.0505   -0.7482 C   0  0  0  0  0  0
   -4.2614   -0.7264   -0.3423 C   0  0  0  0  0  0
   -3.1002    0.0523   -0.2690 C   0  0  0  0  0  0
   -1.8424   -0.4821   -0.5914 C   0  0  0  0  0  0
   -0.5840    0.3184   -0.5529 C   0  0  0  0  0  0
   -0.6698    1.8428   -0.5450 C   0  0  0  0  0  0
    0.4914    2.4339   -1.3678 C   0  0  0  0  0  0
    1.8172    1.8356   -0.9709 C   0  0  0  0  0  0
    5.3191    2.8381   -0.7920 O   0  0  0  0  0  0
   -5.2853   -2.8371   -0.8390 O   0  0  0  0  0  0
   -0.7058    2.3721    0.9099 C   0  0  0  0  0  0
   -1.0360    3.8559    1.0052 C   0  0  0  0  0  0
    0.7279   -2.3774    0.9063 C   0  0  0  0  0  0
    1.0574   -3.8615    0.9986 C   0  0  0  0  0  0
    2.9352    3.6501   -1.3673 H   0  0  0  0  0  0
    5.2465    0.2763   -0.0455 H   0  0  0  0  0  0
    3.2393   -1.0873    0.0711 H   0  0  0  0  0  0
    1.6213   -2.1640   -1.0533 H   0  0  0  0  0  0
   -0.4783   -3.5221   -1.2914 H   0  0  0  0  0  0
   -0.2893   -2.2084   -2.4430 H   0  0  0  0  0  0
   -2.8974   -3.6470   -1.4009 H   0  0  0  0  0  0
   -5.2176   -0.2782   -0.0820 H   0  0  0  0  0  0
   -3.2113    1.0849    0.0533 H   0  0  0  0  0  0
   -1.5857    2.1656   -1.0566 H   0  0  0  0  0  0
    0.5154    3.5246   -1.2753 H   0  0  0  0  0  0
    0.3344    2.2151   -2.4329 H   0  0  0  0  0  0
    6.0977    2.3029   -0.5273 H   0  0  0  0  0  0
   -6.0656   -2.3027   -0.5777 H   0  0  0  0  0  0
    0.2504    2.1896    1.4153 H   0  0  0  0  0  0
   -1.4611    1.8249    1.4870 H   0  0  0  0  0  0
   -1.1562    4.1449    2.0544 H   0  0  0  0  0  0
   -1.9703    4.0850    0.4832 H   0  0  0  0  0  0
   -0.2401    4.4761    0.5841 H   0  0  0  0  0  0
   -0.2317   -2.1966    1.4058 H   0  0  0  0  0  0
    1.4793   -1.8324    1.4905 H   0  0  0  0  0  0
    1.1701   -4.1545    2.0476 H   0  0  0  0  0  0
    1.9953   -4.0888    0.4824 H   0  0  0  0  0  0
    0.2645   -4.4801    0.5696 H   0  0  0  0  0  0
  1  2  2  0  0  0
  1 18  1  0  0  0
  1 25  1  0  0  0
  2  3  1  0  0  0
  2 19  1  0  0  0
  3  4  2  0  0  0
  3 26  1  0  0  0
  4  5  1  0  0  0
  4 27  1  0  0  0
  5  6  1  0  0  0
  5 18  2  0  0  0
  6  7  1  0  0  0
  6 15  2  0  0  0
  7  8  1  0  0  0
  7 23  1  0  0  0
  7 28  1  0  0  0
  8  9  1  0  0  0
  8 29  1  0  0  0
  8 30  1  0  0  0
  9 10  1  0  0  0
  9 14  2  0  0  0
 10 11  2  0  0  0
 10 31  1  0  0  0
 11 12  1  0  0  0
 11 20  1  0  0  0
 12 13  2  0  0  0
 12 32  1  0  0  0
 13 14  1  0  0  0
 13 33  1  0  0  0
 14 15  1  0  0  0
 15 16  1  0  0  0
 16 17  1  0  0  0
 16 21  1  0  0  0
 16 34  1  0  0  0
 17 18  1  0  0  0
 17 35  1  0  0  0
 17 36  1  0  0  0
 19 37  1  0  0  0
 20 38  1  0  0  0
 21 22  1  0  0  0
 21 39  1  0  0  0
 21 40  1  0  0  0
 22 41  1  0  0  0
 22 42  1  0  0  0
 22 43  1  0  0  0
 23 24  1  0  0  0
 23 44  1  0  0  0
 23 45  1  0  0  0
 24 46  1  0  0  0
 24 47  1  0  0  0
 24 48  1  0  0  0
M  END
>  <Name>
tox-216

>  <substance>
5,11-trans -Diethyl-5,6,11,12- tetrahydrochrysene-2,8-diol

>  <CASRN>


>  <from_NCI>
0

>  <RBA>
221.000000

>  <method>
hERa

>  <chemical_class>
Polycyclic aromatic hydrocarbon; Phenol

>  <set>
0

$$$$
tox-217
  Cerius2 12190218263D 1   1.00000                          
 Structure written by MMmdl.
 61 64  0  0  0  0  0  0  0  0999 V2000
    2.0334    0.7991   -1.5800 C   0  0  0  0  0  0
    0.9088   -0.1681   -1.4290 C   0  0  0  0  0  0
    3.3081    0.3330   -1.7030 C   0  0  0  0  0  0
    1.7610    2.2582   -1.6615 C   0  0  0  0  0  0
    0.5761   -1.0536   -2.4777 C   0  0  0  0  0  0
    0.1610   -0.1912   -0.2464 C   0  0  0  0  0  0
    3.6345   -1.1048   -1.4825 C   0  0  0  0  0  0
    4.5073    1.1846   -2.1005 C   0  0  0  0  0  0
    1.2115    2.8222   -2.8204 C   0  0  0  0  0  0
    2.0263    3.0868   -0.5621 C   0  0  0  0  0  0
   -0.4808   -1.9601   -2.3025 C   0  0  0  0  0  0
    1.3762   -1.0643   -3.7619 C   0  0  0  0  0  0
   -0.8943   -1.0960   -0.0891 C   0  0  0  0  0  0
    3.3506   -2.1354   -2.4031 C   0  0  0  0  0  0
    4.2255   -1.4404   -0.2482 C   0  0  0  0  0  0
    5.3994    1.6300   -0.9488 C   0  0  0  0  0  0
    0.9507    4.1936   -2.8844 C   0  0  0  0  0  0
    1.7658    4.4576   -0.6281 C   0  0  0  0  0  0
   -1.2162   -1.9858   -1.1135 C   0  0  0  0  0  0
    2.6440   -1.9316   -3.7303 C   0  0  0  0  0  0
    3.7432   -3.4541   -2.0851 C   0  0  0  0  0  0
    4.5909   -2.7523    0.0533 C   0  0  0  0  0  0
    1.2298    5.0102   -1.7897 C   0  0  0  0  0  0
   -2.2170   -2.9182   -1.0804 O   0  0  0  0  0  0
    4.3586   -3.7593   -0.8719 C   0  0  0  0  0  0
   -2.9758   -3.0121    0.1338 C   0  0  0  0  0  0
   -4.0304   -4.1188   -0.0454 C   0  0  0  0  0  0
   -4.9821   -4.2452    1.0815 N   0  0  0  0  0  0
   -4.3161   -4.7464    2.2918 C   0  0  0  0  0  0
   -6.0646   -5.1677    0.7082 C   0  0  0  0  0  0
    0.3998    0.4893    0.5696 H   0  0  0  0  0  0
    4.1780    2.0785   -2.6435 H   0  0  0  0  0  0
    5.1160    0.6323   -2.8293 H   0  0  0  0  0  0
    0.9829    2.2016   -3.6842 H   0  0  0  0  0  0
    2.4352    2.6674    0.3557 H   0  0  0  0  0  0
   -0.7312   -2.6595   -3.0990 H   0  0  0  0  0  0
    0.7360   -1.4004   -4.5892 H   0  0  0  0  0  0
    1.6435   -0.0400   -4.0461 H   0  0  0  0  0  0
   -1.4394   -1.0766    0.8507 H   0  0  0  0  0  0
    4.4018   -0.6712    0.5030 H   0  0  0  0  0  0
    6.1222    2.3718   -1.3045 H   0  0  0  0  0  0
    5.9729    0.7935   -0.5398 H   0  0  0  0  0  0
    4.8234    2.0829   -0.1370 H   0  0  0  0  0  0
    0.5270    4.6237   -3.7902 H   0  0  0  0  0  0
    1.9800    5.0927    0.2294 H   0  0  0  0  0  0
    2.3524   -2.9170   -4.1190 H   0  0  0  0  0  0
    3.3692   -1.5379   -4.4536 H   0  0  0  0  0  0
    3.5536   -4.2673   -2.7858 H   0  0  0  0  0  0
    5.0535   -2.9846    1.0106 H   0  0  0  0  0  0
    1.0255    6.0783   -1.8407 H   0  0  0  0  0  0
    4.6419   -4.7860   -0.6478 H   0  0  0  0  0  0
   -3.4830   -2.0591    0.3287 H   0  0  0  0  0  0
   -2.3055   -3.2627    0.9636 H   0  0  0  0  0  0
   -3.5265   -5.0736   -0.2474 H   0  0  0  0  0  0
   -4.5894   -3.8819   -0.9613 H   0  0  0  0  0  0
   -5.0406   -4.8639    3.1059 H   0  0  0  0  0  0
   -3.5678   -4.0345    2.6533 H   0  0  0  0  0  0
   -3.8278   -5.7135    2.1245 H   0  0  0  0  0  0
   -6.7992   -5.2439    1.5171 H   0  0  0  0  0  0
   -5.6918   -6.1730    0.4822 H   0  0  0  0  0  0
   -6.6036   -4.7915   -0.1682 H   0  0  0  0  0  0
  1  2  1  0  0  0
  1  3  2  0  0  0
  1  4  1  0  0  0
  2  5  2  0  0  0
  2  6  1  0  0  0
  3  7  1  0  0  0
  3  8  1  0  0  0
  4  9  2  0  0  0
  4 10  1  0  0  0
  5 11  1  0  0  0
  5 12  1  0  0  0
  6 13  2  0  0  0
  6 31  1  0  0  0
  7 14  2  0  0  0
  7 15  1  0  0  0
  8 16  1  0  0  0
  8 32  1  0  0  0
  8 33  1  0  0  0
  9 17  1  0  0  0
  9 34  1  0  0  0
 10 18  2  0  0  0
 10 35  1  0  0  0
 11 19  2  0  0  0
 11 36  1  0  0  0
 12 20  1  0  0  0
 12 37  1  0  0  0
 12 38  1  0  0  0
 13 19  1  0  0  0
 13 39  1  0  0  0
 14 20  1  0  0  0
 14 21  1  0  0  0
 15 22  2  0  0  0
 15 40  1  0  0  0
 16 41  1  0  0  0
 16 42  1  0  0  0
 16 43  1  0  0  0
 17 23  2  0  0  0
 17 44  1  0  0  0
 18 23  1  0  0  0
 18 45  1  0  0  0
 19 24  1  0  0  0
 20 46  1  0  0  0
 20 47  1  0  0  0
 21 25  2  0  0  0
 21 48  1  0  0  0
 22 25  1  0  0  0
 22 49  1  0  0  0
 23 50  1  0  0  0
 24 26  1  0  0  0
 25 51  1  0  0  0
 26 27  1  0  0  0
 26 52  1  0  0  0
 26 53  1  0  0  0
 27 28  1  0  0  0
 27 54  1  0  0  0
 27 55  1  0  0  0
 28 29  1  0  0  0
 28 30  1  0  0  0
 29 56  1  0  0  0
 29 57  1  0  0  0
 29 58  1  0  0  0
 30 59  1  0  0  0
 30 60  1  0  0  0
 30 61  1  0  0  0
M  END
>  <Name>
tox-217

>  <substance>
5,6-Dihydro-8-[2-(dimethylamino)ethoxy]-12-ethyl-11-phenyl-dibenzo[a,e]cyclooctene,hydrate (1:4)

>  <CASRN>
85850-78-8

>  <from_NCI>
1

>  <RBA>
0.200000

>  <method>
RUC

>  <chemical_class>
Triphenylethylene

>  <set>
2

$$$$
tox-218
  Cerius2 12190218263D 1   1.00000                          
 Structure written by MMmdl.
 51 54  0  0  0  0  0  0  0  0999 V2000
   -7.0197   -4.4288   11.7486 C   0  0  0  0  0  0
   -7.7469   -4.7129   13.1022 C   0  0  0  0  0  0
   -7.8106   -5.0954   10.6152 C   0  0  0  0  0  0
   -5.5679   -4.9269   11.7874 C   0  0  0  0  0  0
   -6.9711   -4.0991   14.3290 C   0  0  0  0  0  0
   -9.2513   -4.3398   13.0421 C   0  0  0  0  0  0
   -9.2721   -4.5824   10.4943 C   0  0  0  0  0  0
   -7.2758   -5.0005    9.1891 C   0  0  0  0  0  0
   -4.7948   -4.3681   12.9786 C   0  0  0  0  0  0
   -5.5145   -4.6674   14.2987 C   0  0  0  0  0  0
   -7.6163   -4.5643   15.6663 C   0  0  0  0  0  0
   -6.9939   -2.5511   14.2785 C   0  0  0  0  0  0
   -9.9818   -4.9269   11.8199 C   0  0  0  0  0  0
   -9.7289   -5.4410    9.2535 C   0  0  0  0  0  0
   -9.3479   -3.0436   10.2486 C   0  0  0  0  0  0
   -8.5011   -5.3078    8.2998 C   0  0  0  0  0  0
   -4.6677   -4.2218   15.4947 C   0  0  0  0  0  0
   -6.8212   -4.1728   16.9104 C   0  0  0  0  0  0
  -10.8157   -4.9944    8.6467 O   0  0  0  0  0  0
   -5.3660   -4.5621   16.7919 C   0  0  0  0  0  0
   -4.7464   -5.0334   17.7517 O   0  0  0  0  0  0
   -6.9833   -3.3500   11.5673 H   0  0  0  0  0  0
   -7.7257   -5.8060   13.2398 H   0  0  0  0  0  0
   -7.8422   -6.1719   10.8540 H   0  0  0  0  0  0
   -5.0470   -4.6433   10.8654 H   0  0  0  0  0  0
   -5.5526   -6.0235   11.8329 H   0  0  0  0  0  0
   -9.3777   -3.2532   13.0451 H   0  0  0  0  0  0
   -9.7618   -4.7101   13.9379 H   0  0  0  0  0  0
   -6.4677   -5.7169    9.0083 H   0  0  0  0  0  0
   -6.8875   -3.9997    8.9700 H   0  0  0  0  0  0
   -4.6461   -3.2893   12.8540 H   0  0  0  0  0  0
   -3.7948   -4.8189   12.9903 H   0  0  0  0  0  0
   -5.5957   -5.7636   14.3718 H   0  0  0  0  0  0
   -7.7199   -5.6577   15.6522 H   0  0  0  0  0  0
   -8.6283   -4.1566   15.7705 H   0  0  0  0  0  0
   -6.3936   -2.0994   15.0732 H   0  0  0  0  0  0
   -8.0108   -2.1651   14.4048 H   0  0  0  0  0  0
   -6.6091   -2.1553   13.3355 H   0  0  0  0  0  0
  -11.0162   -4.5632   11.8042 H   0  0  0  0  0  0
  -10.0400   -6.0166   11.9402 H   0  0  0  0  0  0
   -9.7206   -6.4901    9.5920 H   0  0  0  0  0  0
  -10.3921   -2.7129   10.2057 H   0  0  0  0  0  0
   -8.8745   -2.7484    9.3069 H   0  0  0  0  0  0
   -8.8699   -2.4608   11.0397 H   0  0  0  0  0  0
   -8.3488   -6.2419    7.7444 H   0  0  0  0  0  0
   -8.6109   -4.5110    7.5515 H   0  0  0  0  0  0
   -4.4588   -3.1479   15.4797 H   0  0  0  0  0  0
   -3.7042   -4.7451   15.4799 H   0  0  0  0  0  0
   -7.2484   -4.6759   17.7850 H   0  0  0  0  0  0
   -6.8726   -3.0946   17.0928 H   0  0  0  0  0  0
  -11.0031   -5.5021    7.9912 H   0  0  0  0  0  0
  1  2  1  0  0  0
  1  3  1  0  0  0
  1  4  1  0  0  0
  1 22  1  0  0  0
  2  5  1  0  0  0
  2  6  1  0  0  0
  2 23  1  0  0  0
  3  7  1  0  0  0
  3  8  1  0  0  0
  3 24  1  0  0  0
  4  9  1  0  0  0
  4 25  1  0  0  0
  4 26  1  0  0  0
  5 10  1  0  0  0
  5 11  1  0  0  0
  5 12  1  0  0  0
  6 13  1  0  0  0
  6 27  1  0  0  0
  6 28  1  0  0  0
  7 13  1  0  0  0
  7 14  1  0  0  0
  7 15  1  0  0  0
  8 16  1  0  0  0
  8 29  1  0  0  0
  8 30  1  0  0  0
  9 10  1  0  0  0
  9 31  1  0  0  0
  9 32  1  0  0  0
 10 17  1  0  0  0
 10 33  1  0  0  0
 11 18  1  0  0  0
 11 34  1  0  0  0
 11 35  1  0  0  0
 12 36  1  0  0  0
 12 37  1  0  0  0
 12 38  1  0  0  0
 13 39  1  0  0  0
 13 40  1  0  0  0
 14 16  1  0  0  0
 14 19  1  0  0  0
 14 41  1  0  0  0
 15 42  1  0  0  0
 15 43  1  0  0  0
 15 44  1  0  0  0
 16 45  1  0  0  0
 16 46  1  0  0  0
 17 20  1  0  0  0
 17 47  1  0  0  0
 17 48  1  0  0  0
 18 20  1  0  0  0
 18 49  1  0  0  0
 18 50  1  0  0  0
 19 51  1  0  0  0
 20 21  2  0  0  0
M  END
>  <Name>
tox-218

>  <substance>
5a-Dihydrotestosterone

>  <CASRN>
521-18-6

>  <from_NCI>
1

>  <RBA>
0.030000

>  <method>
GST-hERadef,GST-mERadef,hERa,hERa-FP,MUC,RUC,RUC

>  <chemical_class>
Steroid, nonphenolic

>  <set>
0

$$$$
tox-219
  Cerius2 12190218263D 1   1.00000                          
 Structure written by MMmdl.
 51 54  0  0  0  0  0  0  0  0999 V2000
    0.3792   -0.5466    0.0068 C   0  0  0  0  0  0
   -0.9354    0.2955    0.0751 C   0  0  0  0  0  0
    1.5783    0.4109    0.0213 C   0  0  0  0  0  0
    0.3975   -1.4510   -1.2337 C   0  0  0  0  0  0
   -2.2181   -0.6142    0.0224 C   0  0  0  0  0  0
   -0.9151    1.3018    1.2559 C   0  0  0  0  0  0
    1.6447    1.3009    1.2932 C   0  0  0  0  0  0
    2.9858   -0.1686   -0.0871 C   0  0  0  0  0  0
   -0.8509   -2.3247   -1.3332 C   0  0  0  0  0  0
   -2.1607   -1.5218   -1.2531 C   0  0  0  0  0  0
   -3.5404    0.2068   -0.0244 C   0  0  0  0  0  0
   -2.3195   -1.5098    1.2857 C   0  0  0  0  0  0
    0.3634    2.1595    1.3104 C   0  0  0  0  0  0
    2.9698    2.0905    0.9679 C   0  0  0  0  0  0
    1.7259    0.4632    2.6070 C   0  0  0  0  0  0
    3.9034    0.9530    0.4484 C   0  0  0  0  0  0
   -2.3771   -0.7406   -2.5637 C   0  0  0  0  0  0
   -3.7223    1.0307   -1.2894 C   0  0  0  0  0  0
    3.5265    2.6829    2.0109 O   0  0  0  0  0  0
   -3.6033    0.1378   -2.4979 C   0  0  0  0  0  0
   -4.4080    0.1998   -3.4326 O   0  0  0  0  0  0
    0.4433   -1.2026    0.8804 H   0  0  0  0  0  0
   -0.9418    0.9202   -0.8290 H   0  0  0  0  0  0
    1.4560    1.0702   -0.8546 H   0  0  0  0  0  0
    1.2774   -2.1049   -1.2045 H   0  0  0  0  0  0
    0.4988   -0.8429   -2.1404 H   0  0  0  0  0  0
   -1.0360    0.7779    2.2087 H   0  0  0  0  0  0
   -1.7647    1.9885    1.1730 H   0  0  0  0  0  0
    3.2413   -0.4280   -1.1197 H   0  0  0  0  0  0
    3.0969   -1.0740    0.5198 H   0  0  0  0  0  0
   -0.8284   -3.0714   -0.5305 H   0  0  0  0  0  0
   -0.8182   -2.8941   -2.2704 H   0  0  0  0  0  0
   -2.9842   -2.2480   -1.1860 H   0  0  0  0  0  0
   -3.6278    0.8608    0.8503 H   0  0  0  0  0  0
   -4.3880   -0.4905    0.0446 H   0  0  0  0  0  0
   -3.1633   -2.2054    1.2025 H   0  0  0  0  0  0
   -2.4893   -0.9134    2.1881 H   0  0  0  0  0  0
   -1.4259   -2.1149    1.4555 H   0  0  0  0  0  0
    0.3400    2.7917    2.2061 H   0  0  0  0  0  0
    0.3602    2.8424    0.4509 H   0  0  0  0  0  0
    2.7446    2.7077    0.0827 H   0  0  0  0  0  0
    1.7359    1.1227    3.4826 H   0  0  0  0  0  0
    2.6297   -0.1523    2.6534 H   0  0  0  0  0  0
    0.8762   -0.2114    2.7367 H   0  0  0  0  0  0
    4.5546    1.3314   -0.3498 H   0  0  0  0  0  0
    4.5632    0.5385    1.2228 H   0  0  0  0  0  0
   -2.5038   -1.4461   -3.3934 H   0  0  0  0  0  0
   -1.5295   -0.0944   -2.8113 H   0  0  0  0  0  0
   -2.9817    1.8320   -1.3674 H   0  0  0  0  0  0
   -4.7159    1.4918   -1.2879 H   0  0  0  0  0  0
    4.2322    3.0871    1.7638 H   0  0  0  0  0  0
  1  2  1  0  0  0
  1  3  1  0  0  0
  1  4  1  0  0  0
  1 22  1  0  0  0
  2  5  1  0  0  0
  2  6  1  0  0  0
  2 23  1  0  0  0
  3  7  1  0  0  0
  3  8  1  0  0  0
  3 24  1  0  0  0
  4  9  1  0  0  0
  4 25  1  0  0  0
  4 26  1  0  0  0
  5 10  1  0  0  0
  5 11  1  0  0  0
  5 12  1  0  0  0
  6 13  1  0  0  0
  6 27  1  0  0  0
  6 28  1  0  0  0
  7 13  1  0  0  0
  7 14  1  0  0  0
  7 15  1  0  0  0
  8 16  1  0  0  0
  8 29  1  0  0  0
  8 30  1  0  0  0
  9 10  1  0  0  0
  9 31  1  0  0  0
  9 32  1  0  0  0
 10 17  1  0  0  0
 10 33  1  0  0  0
 11 18  1  0  0  0
 11 34  1  0  0  0
 11 35  1  0  0  0
 12 36  1  0  0  0
 12 37  1  0  0  0
 12 38  1  0  0  0
 13 39  1  0  0  0
 13 40  1  0  0  0
 14 16  1  0  0  0
 14 19  1  0  0  0
 14 41  1  0  0  0
 15 42  1  0  0  0
 15 43  1  0  0  0
 15 44  1  0  0  0
 16 45  1  0  0  0
 16 46  1  0  0  0
 17 20  1  0  0  0
 17 47  1  0  0  0
 17 48  1  0  0  0
 18 20  1  0  0  0
 18 49  1  0  0  0
 18 50  1  0  0  0
 19 51  1  0  0  0
 20 21  2  0  0  0
M  END
>  <Name>
tox-219

>  <substance>
5b-Dihydrotestosterone

>  <CASRN>
571-22-2

>  <from_NCI>
1

>  <RBA>
0.000000

>  <method>
RUC

>  <chemical_class>
Steroid, nonphenolic

>  <set>
0

$$$$
tox-220
  Cerius2 12190218263D 1   1.00000                          
 Structure written by MMmdl.
 29 31  0  0  0  0  0  0  0  0999 V2000
    0.1093   -0.2763    1.0730 C   0  0  0  0  0  0
   -0.0843   -1.5747    1.3503 C   0  0  0  0  0  0
   -1.3484   -2.2187    0.9545 C   0  0  0  0  0  0
   -1.5550   -3.4052    1.1919 O   0  0  0  0  0  0
   -2.3317   -1.3646    0.2686 C   0  0  0  0  0  0
   -3.5619   -1.8786   -0.1514 C   0  0  0  0  0  0
   -4.4632   -1.0362   -0.7944 C   0  0  0  0  0  0
   -4.1556    0.3033   -1.0223 C   0  0  0  0  0  0
   -2.9239    0.8098   -0.5995 C   0  0  0  0  0  0
   -2.0120   -0.0263    0.0461 C   0  0  0  0  0  0
   -0.8211    0.5313    0.4365 O   0  0  0  0  0  0
    1.3526    0.4239    1.4552 C   0  0  0  0  0  0
    1.2932    1.7266    1.9760 C   0  0  0  0  0  0
    2.4600    2.4099    2.3315 C   0  0  0  0  0  0
    3.6949    1.7969    2.1623 C   0  0  0  0  0  0
    3.7828    0.5116    1.6410 C   0  0  0  0  0  0
    2.6139   -0.1707    1.2863 C   0  0  0  0  0  0
    4.8110    2.4935    2.5191 O   0  0  0  0  0  0
   -5.6562   -1.5629   -1.1939 O   0  0  0  0  0  0
    0.6388   -2.1940    1.8656 H   0  0  0  0  0  0
   -3.8156   -2.9214    0.0199 H   0  0  0  0  0  0
   -4.8583    0.9645   -1.5246 H   0  0  0  0  0  0
   -2.6801    1.8554   -0.7755 H   0  0  0  0  0  0
    0.3335    2.2224    2.1182 H   0  0  0  0  0  0
    2.3953    3.4167    2.7379 H   0  0  0  0  0  0
    4.7455    0.0258    1.4993 H   0  0  0  0  0  0
    2.7061   -1.1711    0.8654 H   0  0  0  0  0  0
    5.5963    1.9325    2.3412 H   0  0  0  0  0  0
   -6.1796   -0.8549   -1.6274 H   0  0  0  0  0  0
  1  2  2  0  0  0
  1 11  1  0  0  0
  1 12  1  0  0  0
  2  3  1  0  0  0
  2 20  1  0  0  0
  3  4  2  0  0  0
  3  5  1  0  0  0
  5  6  2  0  0  0
  5 10  1  0  0  0
  6  7  1  0  0  0
  6 21  1  0  0  0
  7  8  2  0  0  0
  7 19  1  0  0  0
  8  9  1  0  0  0
  8 22  1  0  0  0
  9 10  2  0  0  0
  9 23  1  0  0  0
 10 11  1  0  0  0
 12 13  2  0  0  0
 12 17  1  0  0  0
 13 14  1  0  0  0
 13 24  1  0  0  0
 14 15  2  0  0  0
 14 25  1  0  0  0
 15 16  1  0  0  0
 15 18  1  0  0  0
 16 17  2  0  0  0
 16 26  1  0  0  0
 17 27  1  0  0  0
 18 28  1  0  0  0
 19 29  1  0  0  0
M  END
>  <Name>
tox-220

>  <substance>
6,4'-Dihydroxyflavone

>  <CASRN>
63046-09-3

>  <from_NCI>
0

>  <RBA>
0.200000

>  <method>
RUC

>  <chemical_class>
Flavone

>  <set>
1

$$$$
tox-221
  Cerius2 12190218263D 1   1.00000                          
 Structure written by MMmdl.
 40 41  0  0  0  0  0  0  0  0999 V2000
   -0.3568   -0.5281    0.2175 C   0  0  0  0  0  0
    0.3562    0.5364   -0.2311 C   0  0  0  0  0  0
   -1.8356   -0.5203    0.1834 C   0  0  0  0  0  0
    0.2320   -1.7826    0.8436 C   0  0  0  0  0  0
    1.8352    0.5285   -0.1970 C   0  0  0  0  0  0
   -0.2330    1.7901   -0.8585 C   0  0  0  0  0  0
   -2.5312   -0.9312   -0.9522 C   0  0  0  0  0  0
   -2.5693   -0.0985    1.2905 C   0  0  0  0  0  0
    0.3618   -2.9317   -0.1488 C   0  0  0  0  0  0
    2.5693    0.1294   -1.3121 C   0  0  0  0  0  0
    2.5305    0.9172    0.9466 C   0  0  0  0  0  0
   -0.3378    2.9483    0.1265 C   0  0  0  0  0  0
   -3.9374   -0.9198   -0.9683 C   0  0  0  0  0  0
   -3.9752   -0.0945    1.2528 C   0  0  0  0  0  0
    3.9752    0.1249   -1.2743 C   0  0  0  0  0  0
    3.9368    0.9055    0.9629 C   0  0  0  0  0  0
   -4.7186   -0.5040    0.1281 C   0  0  0  0  0  0
    4.7182    0.5116   -0.1413 C   0  0  0  0  0  0
   -5.9901   -0.4983    0.1044 O   0  0  0  0  0  0
    5.9898    0.5053   -0.1173 O   0  0  0  0  0  0
   -0.3872   -2.1068    1.6900 H   0  0  0  0  0  0
    1.2177   -1.5844    1.2774 H   0  0  0  0  0  0
   -1.2274    1.5966   -1.2743 H   0  0  0  0  0  0
    0.3750    2.1022   -1.7174 H   0  0  0  0  0  0
   -1.9937   -1.2644   -1.8384 H   0  0  0  0  0  0
   -2.0626    0.2333    2.1952 H   0  0  0  0  0  0
    0.8325   -3.7935    0.3355 H   0  0  0  0  0  0
    0.9790   -2.6494   -1.0078 H   0  0  0  0  0  0
   -0.6159   -3.2534   -0.5208 H   0  0  0  0  0  0
    2.0630   -0.1846   -2.2235 H   0  0  0  0  0  0
    1.9928    1.2333    1.8389 H   0  0  0  0  0  0
   -0.8109    3.8093   -0.3568 H   0  0  0  0  0  0
    0.6485    3.2662    0.4789 H   0  0  0  0  0  0
   -0.9419    2.6770    0.9982 H   0  0  0  0  0  0
   -4.4300   -1.2535   -1.8861 H   0  0  0  0  0  0
   -4.4987    0.2465    2.1507 H   0  0  0  0  0  0
    4.4990   -0.1979   -2.1787 H   0  0  0  0  0  0
    4.4290    1.2210    1.8873 H   0  0  0  0  0  0
   -6.2861   -0.2181    0.8503 H   0  0  0  0  0  0
    6.2601    0.7680    0.6446 H   0  0  0  0  0  0
  1  2  2  0  0  0
  1  3  1  0  0  0
  1  4  1  0  0  0
  2  5  1  0  0  0
  2  6  1  0  0  0
  3  7  2  0  0  0
  3  8  1  0  0  0
  4  9  1  0  0  0
  4 21  1  0  0  0
  4 22  1  0  0  0
  5 10  2  0  0  0
  5 11  1  0  0  0
  6 12  1  0  0  0
  6 23  1  0  0  0
  6 24  1  0  0  0
  7 13  1  0  0  0
  7 25  1  0  0  0
  8 14  2  0  0  0
  8 26  1  0  0  0
  9 27  1  0  0  0
  9 28  1  0  0  0
  9 29  1  0  0  0
 10 15  1  0  0  0
 10 30  1  0  0  0
 11 16  2  0  0  0
 11 31  1  0  0  0
 12 32  1  0  0  0
 12 33  1  0  0  0
 12 34  1  0  0  0
 13 17  2  0  0  0
 13 35  1  0  0  0
 14 17  1  0  0  0
 14 36  1  0  0  0
 15 18  2  0  0  0
 15 37  1  0  0  0
 16 18  1  0  0  0
 16 38  1  0  0  0
 17 19  1  0  0  0
 18 20  1  0  0  0
 19 39  1  0  0  0
 20 40  1  0  0  0
M  END
>  <Name>
tox-221

>  <substance>
Diethylstilbestrol

>  <CASRN>
56-53-1

>  <from_NCI>
1

>  <RBA>
419.000000

>  <method>
GST-hERadef,GST-mERadef,hERa,hERa,hERa,hERa-FP,hERa-FP,hERa-FP,hERa-FP,MCF-7 cytosol,MCF-7 cytosol,MUC,MUC,MUC,MUC,MUC,MUC,MUC,RBC,RBC,RUC,RUC,RUC,RUC,RUC,RUC,RUC,RUC,RUC,RUC,RUC

>  <chemical_class>
Stilbene

>  <set>
0

$$$$
tox-222
  Cerius2 12190218263D 1   1.00000                          
 Structure written by MMmdl.
 46 47  0  0  0  0  0  0  0  0999 V2000
   -0.5178    0.4429    0.4094 C   0  0  0  0  0  0
    0.5120   -0.4413    0.4171 C   0  0  0  0  0  0
   -1.9192   -0.0294    0.4133 C   0  0  0  0  0  0
    1.9133    0.0311    0.4373 C   0  0  0  0  0  0
   -2.5205   -0.4840   -0.7664 C   0  0  0  0  0  0
    2.6399    0.0393    1.6320 C   0  0  0  0  0  0
    2.5296    0.4819   -0.7361 C   0  0  0  0  0  0
   -2.6610   -0.0339    1.5986 C   0  0  0  0  0  0
   -4.5825   -0.9405    0.4207 C   0  0  0  0  0  0
    4.5762    0.9423    0.4759 C   0  0  0  0  0  0
    3.8543    0.9352   -0.7177 C   0  0  0  0  0  0
    3.9623    0.4922    1.6478 C   0  0  0  0  0  0
   -3.8453   -0.9373   -0.7635 C   0  0  0  0  0  0
   -3.9836   -0.4867    1.5990 C   0  0  0  0  0  0
   -0.3810    1.9570    0.4583 C   0  0  0  0  0  0
    0.3747   -1.9552    0.4686 C   0  0  0  0  0  0
   -5.8784   -1.3558    0.5590 O   0  0  0  0  0  0
    5.8702    1.3581    0.6294 O   0  0  0  0  0  0
   -6.5282   -1.8319   -0.6187 C   0  0  0  0  0  0
    6.5359    1.8282   -0.5419 C   0  0  0  0  0  0
   -0.6354    2.6157   -0.8922 C   0  0  0  0  0  0
    0.6469   -2.6181   -0.8763 C   0  0  0  0  0  0
   -1.9620   -0.4861   -1.7012 H   0  0  0  0  0  0
    2.1826   -0.3012    2.5594 H   0  0  0  0  0  0
    1.9830    0.4811   -1.6780 H   0  0  0  0  0  0
   -2.2157    0.3095    2.5308 H   0  0  0  0  0  0
    4.2865    1.2740   -1.6552 H   0  0  0  0  0  0
    4.5134    0.4930    2.5868 H   0  0  0  0  0  0
   -4.2656   -1.2790   -1.7055 H   0  0  0  0  0  0
   -4.5466   -0.4846    2.5308 H   0  0  0  0  0  0
    0.6119    2.2570    0.8102 H   0  0  0  0  0  0
   -1.0778    2.3728    1.1972 H   0  0  0  0  0  0
   -0.6227   -2.2543    0.8084 H   0  0  0  0  0  0
    1.0618   -2.3687    1.2179 H   0  0  0  0  0  0
   -7.5456   -2.1244   -0.3418 H   0  0  0  0  0  0
   -6.0223   -2.7179   -1.0162 H   0  0  0  0  0  0
   -6.6014   -1.0424   -1.3739 H   0  0  0  0  0  0
    7.5499    2.1209   -0.2530 H   0  0  0  0  0  0
    6.0362    2.7129   -0.9499 H   0  0  0  0  0  0
    6.6180    1.0353   -1.2925 H   0  0  0  0  0  0
   -0.4718    3.6958   -0.8187 H   0  0  0  0  0  0
   -1.6656    2.4589   -1.2276 H   0  0  0  0  0  0
    0.0377    2.2243   -1.6614 H   0  0  0  0  0  0
    0.4825   -3.6979   -0.8016 H   0  0  0  0  0  0
    1.6813   -2.4621   -1.1988 H   0  0  0  0  0  0
   -0.0163   -2.2293   -1.6555 H   0  0  0  0  0  0
  1  2  2  0  0  0
  1  3  1  0  0  0
  1 15  1  0  0  0
  2  4  1  0  0  0
  2 16  1  0  0  0
  3  5  2  0  0  0
  3  8  1  0  0  0
  4  6  2  0  0  0
  4  7  1  0  0  0
  5 13  1  0  0  0
  5 23  1  0  0  0
  6 12  1  0  0  0
  6 24  1  0  0  0
  7 11  2  0  0  0
  7 25  1  0  0  0
  8 14  2  0  0  0
  8 26  1  0  0  0
  9 13  2  0  0  0
  9 14  1  0  0  0
  9 17  1  0  0  0
 10 11  1  0  0  0
 10 12  2  0  0  0
 10 18  1  0  0  0
 11 27  1  0  0  0
 12 28  1  0  0  0
 13 29  1  0  0  0
 14 30  1  0  0  0
 15 21  1  0  0  0
 15 31  1  0  0  0
 15 32  1  0  0  0
 16 22  1  0  0  0
 16 33  1  0  0  0
 16 34  1  0  0  0
 17 19  1  0  0  0
 18 20  1  0  0  0
 19 35  1  0  0  0
 19 36  1  0  0  0
 19 37  1  0  0  0
 20 38  1  0  0  0
 20 39  1  0  0  0
 20 40  1  0  0  0
 21 41  1  0  0  0
 21 42  1  0  0  0
 21 43  1  0  0  0
 22 44  1  0  0  0
 22 45  1  0  0  0
 22 46  1  0  0  0
M  END
>  <Name>
tox-222

>  <substance>
Diethylstilbestrol dimethyl ether

>  <CASRN>
130-79-0

>  <from_NCI>
1

>  <RBA>
0.060000

>  <method>
RUC

>  <chemical_class>
Stilbene

>  <set>
1

$$$$
tox-223
  Cerius2 12190218263D 1   1.00000                          
 Structure written by MMmdl.
 41 43  0  0  0  0  0  0  0  0999 V2000
   -0.2674   -0.1540   -0.8912 C   0  0  0  0  0  0
    0.0661   -1.1908    0.2288 C   0  0  0  0  0  0
   -1.4050    0.8260   -0.6543 C   0  0  0  0  0  0
    0.7946    0.2781   -1.8909 C   0  0  0  0  0  0
   -0.5807   -1.5527   -1.0031 O   0  0  0  0  0  0
    1.5171   -1.5959    0.4310 C   0  0  0  0  0  0
   -0.8522   -1.3579    1.4301 C   0  0  0  0  0  0
   -1.2464    1.9398    0.1768 C   0  0  0  0  0  0
   -2.6593    0.6738   -1.2551 C   0  0  0  0  0  0
    0.2346    0.5333   -3.2841 C   0  0  0  0  0  0
    2.4212   -0.7603    1.0949 C   0  0  0  0  0  0
    2.0215   -2.8190   -0.0240 C   0  0  0  0  0  0
   -0.9287   -2.7951    1.9283 C   0  0  0  0  0  0
   -2.2969    2.8508    0.3950 C   0  0  0  0  0  0
   -3.7007    1.5929   -1.0288 C   0  0  0  0  0  0
    3.7642   -1.1347    1.2873 C   0  0  0  0  0  0
    3.3668   -3.1808    0.1756 C   0  0  0  0  0  0
   -3.5660    2.7180   -0.1962 C   0  0  0  0  0  0
    4.2945   -2.3571    0.8375 C   0  0  0  0  0  0
   -4.5108    3.5451    0.0045 O   0  0  0  0  0  0
    5.5091   -2.6894    1.0147 O   0  0  0  0  0  0
    1.5737   -0.4859   -1.9878 H   0  0  0  0  0  0
    1.2896    1.1852   -1.5242 H   0  0  0  0  0  0
   -1.8730   -1.0421    1.1878 H   0  0  0  0  0  0
   -0.5074   -0.7073    2.2425 H   0  0  0  0  0  0
   -0.2913    2.1136    0.6719 H   0  0  0  0  0  0
   -2.8417   -0.1737   -1.9154 H   0  0  0  0  0  0
    1.0468    0.7659   -3.9802 H   0  0  0  0  0  0
   -0.4595    1.3793   -3.2891 H   0  0  0  0  0  0
   -0.2983   -0.3457   -3.6609 H   0  0  0  0  0  0
    2.0870    0.2049    1.4747 H   0  0  0  0  0  0
    1.3633   -3.5133   -0.5459 H   0  0  0  0  0  0
   -1.6582   -2.8741    2.7405 H   0  0  0  0  0  0
    0.0363   -3.1380    2.3140 H   0  0  0  0  0  0
   -1.2346   -3.4738    1.1256 H   0  0  0  0  0  0
   -2.0960    3.6963    1.0593 H   0  0  0  0  0  0
   -4.6524    1.4051   -1.5343 H   0  0  0  0  0  0
    4.4102   -0.4268    1.8147 H   0  0  0  0  0  0
    3.6858   -4.1535   -0.2098 H   0  0  0  0  0  0
   -5.1976    3.3025   -0.4336 H   0  0  0  0  0  0
    5.6449   -3.4575    0.6769 H   0  0  0  0  0  0
  1  2  1  0  0  0
  1  3  1  0  0  0
  1  4  1  0  0  0
  1  5  1  0  0  0
  2  5  1  0  0  0
  2  6  1  0  0  0
  2  7  1  0  0  0
  3  8  2  0  0  0
  3  9  1  0  0  0
  4 10  1  0  0  0
  4 22  1  0  0  0
  4 23  1  0  0  0
  6 11  2  0  0  0
  6 12  1  0  0  0
  7 13  1  0  0  0
  7 24  1  0  0  0
  7 25  1  0  0  0
  8 14  1  0  0  0
  8 26  1  0  0  0
  9 15  2  0  0  0
  9 27  1  0  0  0
 10 28  1  0  0  0
 10 29  1  0  0  0
 10 30  1  0  0  0
 11 16  1  0  0  0
 11 31  1  0  0  0
 12 17  2  0  0  0
 12 32  1  0  0  0
 13 33  1  0  0  0
 13 34  1  0  0  0
 13 35  1  0  0  0
 14 18  2  0  0  0
 14 36  1  0  0  0
 15 18  1  0  0  0
 15 37  1  0  0  0
 16 19  2  0  0  0
 16 38  1  0  0  0
 17 19  1  0  0  0
 17 39  1  0  0  0
 18 20  1  0  0  0
 19 21  1  0  0  0
 20 40  1  0  0  0
 21 41  1  0  0  0
M  END
>  <Name>
tox-223

>  <substance>
Diethylstilbestrol epoxide

>  <CASRN>
6052-82-0

>  <from_NCI>
1

>  <RBA>
9.400000

>  <method>
MUC

>  <chemical_class>
Stilbene

>  <set>
2

$$$$
tox-224
  Cerius2 12190218263D 1   1.00000                          
 Structure written by MMmdl.
 38 40  0  0  0  0  0  0  0  0999 V2000
    2.8085   -0.1200   -0.5858 C   0  0  0  0  0  0
    3.5649   -1.2862   -0.6816 C   0  0  0  0  0  0
    2.9161   -2.4972   -0.7127 C   0  0  0  0  0  0
    1.5270   -2.5476   -0.6519 C   0  0  0  0  0  0
    0.7194   -1.3770   -0.5546 C   0  0  0  0  0  0
   -0.7172   -1.4283   -0.4939 C   0  0  0  0  0  0
   -1.4436   -2.6530   -0.5114 C   0  0  0  0  0  0
   -2.8319   -2.7062   -0.4505 C   0  0  0  0  0  0
   -3.5655   -1.5467   -0.3674 C   0  0  0  0  0  0
   -2.8887   -0.3280   -0.3490 C   0  0  0  0  0  0
   -1.4713   -0.2249   -0.4143 C   0  0  0  0  0  0
   -0.7958    1.0326   -0.3981 C   0  0  0  0  0  0
    0.6281    1.0823   -0.4146 C   0  0  0  0  0  0
    1.3883   -0.1219   -0.5162 C   0  0  0  0  0  0
   -1.6058    2.3279   -0.3458 C   0  0  0  0  0  0
   -1.9727    2.7258    1.0782 C   0  0  0  0  0  0
    1.3473    2.4292   -0.3404 C   0  0  0  0  0  0
    1.6819    2.9854   -1.7186 C   0  0  0  0  0  0
   -3.4327   -3.9292   -0.4725 O   0  0  0  0  0  0
    3.6697   -3.6287   -0.8067 O   0  0  0  0  0  0
    3.3738    0.8098   -0.5765 H   0  0  0  0  0  0
    4.6494   -1.2317   -0.7328 H   0  0  0  0  0  0
    1.0709   -3.5328   -0.6845 H   0  0  0  0  0  0
   -0.9335   -3.6105   -0.5716 H   0  0  0  0  0  0
   -4.6509   -1.5596   -0.3138 H   0  0  0  0  0  0
   -3.5157    0.5582   -0.2709 H   0  0  0  0  0  0
   -2.5086    2.2401   -0.9604 H   0  0  0  0  0  0
   -1.0693    3.1495   -0.8298 H   0  0  0  0  0  0
   -2.5394    3.6624    1.0725 H   0  0  0  0  0  0
   -1.0811    2.8740    1.6958 H   0  0  0  0  0  0
   -2.5886    1.9636    1.5657 H   0  0  0  0  0  0
    2.2557    2.3454    0.2664 H   0  0  0  0  0  0
    0.7571    3.1622    0.2177 H   0  0  0  0  0  0
    2.3470    2.3170   -2.2744 H   0  0  0  0  0  0
    2.1833    3.9536   -1.6215 H   0  0  0  0  0  0
    0.7804    3.1306   -2.3223 H   0  0  0  0  0  0
   -4.4041   -3.7988   -0.4228 H   0  0  0  0  0  0
    3.0711   -4.4058   -0.8187 H   0  0  0  0  0  0
  1  2  2  0  0  0
  1 14  1  0  0  0
  1 21  1  0  0  0
  2  3  1  0  0  0
  2 22  1  0  0  0
  3  4  2  0  0  0
  3 20  1  0  0  0
  4  5  1  0  0  0
  4 23  1  0  0  0
  5  6  2  0  0  0
  5 14  1  0  0  0
  6  7  1  0  0  0
  6 11  1  0  0  0
  7  8  2  0  0  0
  7 24  1  0  0  0
  8  9  1  0  0  0
  8 19  1  0  0  0
  9 10  2  0  0  0
  9 25  1  0  0  0
 10 11  1  0  0  0
 10 26  1  0  0  0
 11 12  2  0  0  0
 12 13  1  0  0  0
 12 15  1  0  0  0
 13 14  2  0  0  0
 13 17  1  0  0  0
 15 16  1  0  0  0
 15 27  1  0  0  0
 15 28  1  0  0  0
 16 29  1  0  0  0
 16 30  1  0  0  0
 16 31  1  0  0  0
 17 18  1  0  0  0
 17 32  1  0  0  0
 17 33  1  0  0  0
 18 34  1  0  0  0
 18 35  1  0  0  0
 18 36  1  0  0  0
 19 37  1  0  0  0
 20 38  1  0  0  0
M  END
>  <Name>
tox-224

>  <substance>
Diethylstilbestrol phenanthrene

>  <CASRN>


>  <from_NCI>
0

>  <RBA>
0.300000

>  <method>
MUC

>  <chemical_class>
Stilbene

>  <set>
1

$$$$
tox-225
  Cerius2 12190218263D 1   1.00000                          
 Structure written by MMmdl.
 54 54  0  0  0  0  0  0  0  0999 V2000
   -0.8267    3.7505    2.0792 C   0  0  0  0  0  0
    0.5282    3.5843    1.7574 C   0  0  0  0  0  0
   -1.6503    2.6566    2.6437 C   0  0  0  0  0  0
   -1.4452    4.9839    1.8394 C   0  0  0  0  0  0
    1.2359    2.3430    2.1082 C   0  0  0  0  0  0
    1.2501    4.6309    1.1691 C   0  0  0  0  0  0
   -1.3998    1.5251    1.9442 O   0  0  0  0  0  0
   -2.4697    2.7944    3.5371 O   0  0  0  0  0  0
   -0.7224    6.0273    1.2556 C   0  0  0  0  0  0
    1.6815    1.7548    0.9737 O   0  0  0  0  0  0
    1.3340    1.9253    3.2527 O   0  0  0  0  0  0
    0.6196    5.8492    0.9149 C   0  0  0  0  0  0
   -2.1504    0.3599    2.3271 C   0  0  0  0  0  0
    2.2584    0.4458    1.1357 C   0  0  0  0  0  0
   -1.5219   -0.8250    1.6047 C   0  0  0  0  0  0
    1.9201   -0.3776   -0.1044 C   0  0  0  0  0  0
   -2.2779   -2.1289    1.8353 C   0  0  0  0  0  0
    2.3213   -1.8418    0.0626 C   0  0  0  0  0  0
   -1.5996   -3.2736    1.0798 C   0  0  0  0  0  0
    1.9361   -2.6732   -1.1620 C   0  0  0  0  0  0
   -2.3712   -4.5829    1.2235 C   0  0  0  0  0  0
    2.3129   -4.1421   -0.9707 C   0  0  0  0  0  0
   -1.7037   -5.7028    0.4408 C   0  0  0  0  0  0
    1.9564   -4.9773   -2.1891 C   0  0  0  0  0  0
   -2.4927    5.1369    2.0931 H   0  0  0  0  0  0
    2.3030    4.5090    0.9219 H   0  0  0  0  0  0
   -1.2071    6.9833    1.0630 H   0  0  0  0  0  0
    1.1786    6.6664    0.4602 H   0  0  0  0  0  0
   -3.1926    0.4933    2.0168 H   0  0  0  0  0  0
   -2.0978    0.2142    3.4121 H   0  0  0  0  0  0
    1.8712   -0.0531    2.0318 H   0  0  0  0  0  0
    3.3435    0.5575    1.2355 H   0  0  0  0  0  0
   -0.4822   -0.9355    1.9370 H   0  0  0  0  0  0
   -1.4707   -0.6067    0.5300 H   0  0  0  0  0  0
    2.4215    0.0589   -0.9771 H   0  0  0  0  0  0
    0.8454   -0.3032   -0.3103 H   0  0  0  0  0  0
   -3.3140   -2.0195    1.4938 H   0  0  0  0  0  0
   -2.3094   -2.3577    2.9073 H   0  0  0  0  0  0
    1.8328   -2.2581    0.9518 H   0  0  0  0  0  0
    3.4030   -1.9092    0.2274 H   0  0  0  0  0  0
   -0.5785   -3.4055    1.4583 H   0  0  0  0  0  0
   -1.5175   -3.0134    0.0170 H   0  0  0  0  0  0
    2.4406   -2.2734   -2.0497 H   0  0  0  0  0  0
    0.8569   -2.5915   -1.3390 H   0  0  0  0  0  0
   -3.3970   -4.4517    0.8602 H   0  0  0  0  0  0
   -2.4336   -4.8665    2.2801 H   0  0  0  0  0  0
    1.7949   -4.5470   -0.0939 H   0  0  0  0  0  0
    3.3887   -4.2268   -0.7795 H   0  0  0  0  0  0
   -2.2752   -6.6305    0.5451 H   0  0  0  0  0  0
   -0.6875   -5.8860    0.8045 H   0  0  0  0  0  0
   -1.6473   -5.4559   -0.6242 H   0  0  0  0  0  0
    2.2418   -6.0214   -2.0277 H   0  0  0  0  0  0
    2.4822   -4.6170   -3.0789 H   0  0  0  0  0  0
    0.8807   -4.9447   -2.3871 H   0  0  0  0  0  0
  1  2  2  0  0  0
  1  3  1  0  0  0
  1  4  1  0  0  0
  2  5  1  0  0  0
  2  6  1  0  0  0
  3  7  1  0  0  0
  3  8  2  0  0  0
  4  9  2  0  0  0
  4 25  1  0  0  0
  5 10  1  0  0  0
  5 11  2  0  0  0
  6 12  2  0  0  0
  6 26  1  0  0  0
  7 13  1  0  0  0
  9 12  1  0  0  0
  9 27  1  0  0  0
 10 14  1  0  0  0
 12 28  1  0  0  0
 13 15  1  0  0  0
 13 29  1  0  0  0
 13 30  1  0  0  0
 14 16  1  0  0  0
 14 31  1  0  0  0
 14 32  1  0  0  0
 15 17  1  0  0  0
 15 33  1  0  0  0
 15 34  1  0  0  0
 16 18  1  0  0  0
 16 35  1  0  0  0
 16 36  1  0  0  0
 17 19  1  0  0  0
 17 37  1  0  0  0
 17 38  1  0  0  0
 18 20  1  0  0  0
 18 39  1  0  0  0
 18 40  1  0  0  0
 19 21  1  0  0  0
 19 41  1  0  0  0
 19 42  1  0  0  0
 20 22  1  0  0  0
 20 43  1  0  0  0
 20 44  1  0  0  0
 21 23  1  0  0  0
 21 45  1  0  0  0
 21 46  1  0  0  0
 22 24  1  0  0  0
 22 47  1  0  0  0
 22 48  1  0  0  0
 23 49  1  0  0  0
 23 50  1  0  0  0
 23 51  1  0  0  0
 24 52  1  0  0  0
 24 53  1  0  0  0
 24 54  1  0  0  0
M  END
>  <Name>
tox-225

>  <substance>
Dihexyl phthalate

>  <CASRN>
84-75-3

>  <from_NCI>
1

>  <RBA>
0.000000

>  <method>
RUC

>  <chemical_class>
Phthalate

>  <set>
0

$$$$
tox-226
  Cerius2 12190218263D 1   1.00000                          
 Structure written by MMmdl.
 32 34  0  0  0  0  0  0  0  0999 V2000
    0.0939    1.4928    0.4732 C   0  0  0  0  0  0
    0.7840    0.4385   -0.3838 C   0  0  0  0  0  0
   -0.2868   -0.4556   -0.9963 C   0  0  0  0  0  0
   -0.0729   -1.6305   -1.2974 O   0  0  0  0  0  0
   -1.5940    0.2052   -1.2943 C   0  0  0  0  0  0
   -2.6589   -0.4525   -1.9318 C   0  0  0  0  0  0
   -2.5756   -1.7753   -2.2737 O   0  0  0  0  0  0
   -3.8365    0.2372   -2.2384 C   0  0  0  0  0  0
   -3.9500    1.5853   -1.9164 C   0  0  0  0  0  0
   -5.1105    2.2244   -2.2414 O   0  0  0  0  0  0
   -2.9118    2.2550   -1.2815 C   0  0  0  0  0  0
   -1.7435    1.5599   -0.9556 C   0  0  0  0  0  0
   -0.7804    2.3040   -0.3211 O   0  0  0  0  0  0
    1.8414   -0.3193    0.4053 C   0  0  0  0  0  0
    1.5096   -1.0843    1.5361 C   0  0  0  0  0  0
    2.5001   -1.7591    2.2540 C   0  0  0  0  0  0
    3.8260   -1.6733    1.8476 C   0  0  0  0  0  0
    4.7641   -2.3458    2.5736 O   0  0  0  0  0  0
    4.1794   -0.9224    0.7326 C   0  0  0  0  0  0
    3.1888   -0.2471    0.0141 C   0  0  0  0  0  0
    0.8358    2.1673    0.9166 H   0  0  0  0  0  0
   -0.4790    1.0605    1.3050 H   0  0  0  0  0  0
    1.2613    0.9369   -1.2397 H   0  0  0  0  0  0
   -3.4105   -2.0510   -2.7076 H   0  0  0  0  0  0
   -4.6658   -0.2631   -2.7329 H   0  0  0  0  0  0
   -5.0441    3.1609   -1.9554 H   0  0  0  0  0  0
   -3.0007    3.3078   -1.0249 H   0  0  0  0  0  0
    0.4755   -1.1689    1.8682 H   0  0  0  0  0  0
    2.2294   -2.3494    3.1267 H   0  0  0  0  0  0
    5.6422   -2.1884    2.1650 H   0  0  0  0  0  0
    5.2149   -0.8495    0.4081 H   0  0  0  0  0  0
    3.4817    0.3396   -0.8565 H   0  0  0  0  0  0
  1  2  1  0  0  0
  1 13  1  0  0  0
  1 21  1  0  0  0
  1 22  1  0  0  0
  2  3  1  0  0  0
  2 14  1  0  0  0
  2 23  1  0  0  0
  3  4  2  0  0  0
  3  5  1  0  0  0
  5  6  2  0  0  0
  5 12  1  0  0  0
  6  7  1  0  0  0
  6  8  1  0  0  0
  7 24  1  0  0  0
  8  9  2  0  0  0
  8 25  1  0  0  0
  9 10  1  0  0  0
  9 11  1  0  0  0
 10 26  1  0  0  0
 11 12  2  0  0  0
 11 27  1  0  0  0
 12 13  1  0  0  0
 14 15  2  0  0  0
 14 20  1  0  0  0
 15 16  1  0  0  0
 15 28  1  0  0  0
 16 17  2  0  0  0
 16 29  1  0  0  0
 17 18  1  0  0  0
 17 19  1  0  0  0
 18 30  1  0  0  0
 19 20  2  0  0  0
 19 31  1  0  0  0
 20 32  1  0  0  0
M  END
>  <Name>
tox-226

>  <substance>
Dihydrogenistein

>  <CASRN>
21554-71-2

>  <from_NCI>
0

>  <RBA>
0.100000

>  <method>
hERa

>  <chemical_class>
Isoflavone

>  <set>
1

$$$$
tox-228
  Cerius2 12190218263D 1   1.00000                          
 Structure written by MMmdl.
 44 45  0  0  0  0  0  0  0  0999 V2000
   -1.7961   -2.6777   -0.6779 C   0  0  0  0  0  0
   -1.7117   -4.0857   -0.7468 C   0  0  0  0  0  0
   -0.7263   -4.8305   -0.0804 C   0  0  0  0  0  0
    0.1750   -4.0456    0.6577 C   0  0  0  0  0  0
    0.1023   -2.6357    0.7363 C   0  0  0  0  0  0
   -0.8964   -1.9005    0.0790 C   0  0  0  0  0  0
   -1.0399    4.2484   -0.6647 C   0  0  0  0  0  0
   -1.2042    2.8449   -0.6977 C   0  0  0  0  0  0
   -0.2677    1.9826   -1.2978 C   0  0  0  0  0  0
    0.8199    2.6415   -1.9000 C   0  0  0  0  0  0
    0.9725    4.0472   -1.8597 C   0  0  0  0  0  0
    0.0563    4.9095   -1.2380 C   0  0  0  0  0  0
   -0.5266   -0.1049    2.7933 C   0  0  0  0  0  0
   -0.1524    0.2901    1.3495 C   0  0  0  0  0  0
   -0.9889   -0.3280    0.1343 C   0  0  0  0  0  0
   -0.4638    0.4148   -1.3382 C   0  0  0  0  0  0
    0.8412   -0.3268   -1.8961 C   0  0  0  0  0  0
    2.1299   -0.2662   -1.0703 C   0  0  0  0  0  0
   -2.2702   -0.0316    0.4132 O   0  0  0  0  0  0
   -1.3583    0.2210   -2.3285 O   0  0  0  0  0  0
    0.2019    6.1725   -1.2055 O   0  0  0  0  0  0
   -0.6537   -6.0989   -0.1423 O   0  0  0  0  0  0
   -2.5913   -2.1829   -1.2365 H   0  0  0  0  0  0
   -2.4597   -4.6002   -1.3567 H   0  0  0  0  0  0
    0.9866   -4.5317    1.2075 H   0  0  0  0  0  0
    0.8660   -2.1406    1.3304 H   0  0  0  0  0  0
   -1.8216    4.8288   -0.1661 H   0  0  0  0  0  0
   -2.1024    2.4339   -0.2408 H   0  0  0  0  0  0
    1.5891    2.0905   -2.4348 H   0  0  0  0  0  0
    1.8568    4.4644   -2.3508 H   0  0  0  0  0  0
    0.1921    0.3378    3.4913 H   0  0  0  0  0  0
   -0.5208   -1.1851    2.9512 H   0  0  0  0  0  0
   -1.5176    0.2742    3.0622 H   0  0  0  0  0  0
    0.9088    0.0637    1.2230 H   0  0  0  0  0  0
   -0.2097    1.3849    1.3252 H   0  0  0  0  0  0
    1.0865    0.0587   -2.8984 H   0  0  0  0  0  0
    0.6255   -1.3898   -2.0785 H   0  0  0  0  0  0
    2.9835   -0.5210   -1.7082 H   0  0  0  0  0  0
    2.1239   -0.9959   -0.2603 H   0  0  0  0  0  0
    2.3178    0.7214   -0.6442 H   0  0  0  0  0  0
   -2.3638    0.8123    0.4522 H   0  0  0  0  0  0
   -1.5152   -0.6104   -2.4099 H   0  0  0  0  0  0
    0.9226    6.3849   -1.6030 H   0  0  0  0  0  0
    0.0043   -6.3681    0.3236 H   0  0  0  0  0  0
  1  2  2  0  0  0
  1  6  1  0  0  0
  1 23  1  0  0  0
  2  3  1  0  0  0
  2 24  1  0  0  0
  3  4  2  0  0  0
  3 22  1  0  0  0
  4  5  1  0  0  0
  4 25  1  0  0  0
  5  6  2  0  0  0
  5 26  1  0  0  0
  6 15  1  0  0  0
  7  8  2  0  0  0
  7 12  1  0  0  0
  7 27  1  0  0  0
  8  9  1  0  0  0
  8 28  1  0  0  0
  9 10  2  0  0  0
  9 16  1  0  0  0
 10 11  1  0  0  0
 10 29  1  0  0  0
 11 12  2  0  0  0
 11 30  1  0  0  0
 12 21  1  0  0  0
 13 14  1  0  0  0
 13 31  1  0  0  0
 13 32  1  0  0  0
 13 33  1  0  0  0
 14 15  1  0  0  0
 14 34  1  0  0  0
 14 35  1  0  0  0
 15 16  1  0  0  0
 15 19  1  0  0  0
 16 17  1  0  0  0
 16 20  1  0  0  0
 17 18  1  0  0  0
 17 36  1  0  0  0
 17 37  1  0  0  0
 18 38  1  0  0  0
 18 39  1  0  0  0
 18 40  1  0  0  0
 19 41  1  0  0  0
 20 42  1  0  0  0
 21 43  1  0  0  0
 22 44  1  0  0  0
M  END
>  <Name>
tox-228

>  <substance>
Dihydroxydiethylstilbestrol

>  <CASRN>
7507-01-9

>  <from_NCI>
1

>  <RBA>
0.500000

>  <method>
MUC

>  <chemical_class>
Stilbene

>  <set>
1

$$$$
tox-229
  Cerius2 12190218263D 1   1.00000                          
 Structure written by MMmdl.
 42 42  0  0  0  0  0  0  0  0999 V2000
    0.6435   -0.5191   -0.3450 C   0  0  0  0  0  0
   -0.5585   -0.4238   -1.0571 C   0  0  0  0  0  0
    1.2389    0.6666    0.3042 C   0  0  0  0  0  0
    1.2573   -1.7700   -0.1770 C   0  0  0  0  0  0
   -1.1860    0.8878   -1.3180 C   0  0  0  0  0  0
   -1.1409   -1.5797   -1.5998 C   0  0  0  0  0  0
    2.5611    0.7098    0.0117 O   0  0  0  0  0  0
    0.6133    1.4647    0.9839 O   0  0  0  0  0  0
    0.6727   -2.9153   -0.7205 C   0  0  0  0  0  0
   -2.5085    0.8063   -1.0351 O   0  0  0  0  0  0
   -0.5827    1.8706   -1.7185 O   0  0  0  0  0  0
   -0.5253   -2.8208   -1.4277 C   0  0  0  0  0  0
    3.2659    1.8311    0.5699 C   0  0  0  0  0  0
   -3.2436    2.0254   -1.2325 C   0  0  0  0  0  0
    4.7367    1.7596    0.1422 C   0  0  0  0  0  0
   -4.7119    1.7893   -0.8586 C   0  0  0  0  0  0
    5.5432    2.8653    0.8194 C   0  0  0  0  0  0
    4.8796    1.8519   -1.3784 C   0  0  0  0  0  0
   -5.5489    3.0260   -1.1775 C   0  0  0  0  0  0
   -4.8573    1.4149    0.6179 C   0  0  0  0  0  0
    2.1832   -1.8631    0.3882 H   0  0  0  0  0  0
   -2.0662   -1.5201   -2.1705 H   0  0  0  0  0  0
    1.1501   -3.8850   -0.5870 H   0  0  0  0  0  0
   -0.9784   -3.7159   -1.8515 H   0  0  0  0  0  0
    3.1920    1.7858    1.6631 H   0  0  0  0  0  0
    2.8077    2.7628    0.2161 H   0  0  0  0  0  0
   -3.1686    2.3161   -2.2872 H   0  0  0  0  0  0
   -2.8107    2.8174   -0.6089 H   0  0  0  0  0  0
    5.1426    0.7879    0.4514 H   0  0  0  0  0  0
   -5.0906    0.9458   -1.4497 H   0  0  0  0  0  0
    6.6006    2.8019    0.5414 H   0  0  0  0  0  0
    5.4793    2.7813    1.9094 H   0  0  0  0  0  0
    5.1766    3.8572    0.5337 H   0  0  0  0  0  0
    5.9335    1.8009   -1.6723 H   0  0  0  0  0  0
    4.4677    2.7928   -1.7590 H   0  0  0  0  0  0
    4.3581    1.0278   -1.8760 H   0  0  0  0  0  0
   -6.6041    2.8537   -0.9406 H   0  0  0  0  0  0
   -5.4826    3.2764   -2.2415 H   0  0  0  0  0  0
   -5.2100    3.8948   -0.6029 H   0  0  0  0  0  0
   -5.9093    1.2489    0.8736 H   0  0  0  0  0  0
   -4.4726    2.2082    1.2679 H   0  0  0  0  0  0
   -4.3123    0.4937    0.8484 H   0  0  0  0  0  0
  1  2  2  0  0  0
  1  3  1  0  0  0
  1  4  1  0  0  0
  2  5  1  0  0  0
  2  6  1  0  0  0
  3  7  1  0  0  0
  3  8  2  0  0  0
  4  9  2  0  0  0
  4 21  1  0  0  0
  5 10  1  0  0  0
  5 11  2  0  0  0
  6 12  2  0  0  0
  6 22  1  0  0  0
  7 13  1  0  0  0
  9 12  1  0  0  0
  9 23  1  0  0  0
 10 14  1  0  0  0
 12 24  1  0  0  0
 13 15  1  0  0  0
 13 25  1  0  0  0
 13 26  1  0  0  0
 14 16  1  0  0  0
 14 27  1  0  0  0
 14 28  1  0  0  0
 15 17  1  0  0  0
 15 18  1  0  0  0
 15 29  1  0  0  0
 16 19  1  0  0  0
 16 20  1  0  0  0
 16 30  1  0  0  0
 17 31  1  0  0  0
 17 32  1  0  0  0
 17 33  1  0  0  0
 18 34  1  0  0  0
 18 35  1  0  0  0
 18 36  1  0  0  0
 19 37  1  0  0  0
 19 38  1  0  0  0
 19 39  1  0  0  0
 20 40  1  0  0  0
 20 41  1  0  0  0
 20 42  1  0  0  0
M  END
>  <Name>
tox-229

>  <substance>
Diisobutyl phthalate

>  <CASRN>
84-69-5

>  <from_NCI>
1

>  <RBA>
0.000000

>  <method>
RUC

>  <chemical_class>
Phthalate

>  <set>
0

$$$$
tox-230
  Cerius2 12190218263D 1   1.00000                          
 Structure written by MMmdl.
 78 78  0  0  0  0  0  0  0  0999 V2000
    0.4998   -2.6091    0.5851 C   0  0  0  0  0  0
   -0.6465   -2.9468   -0.1452 C   0  0  0  0  0  0
    1.1548   -3.5907    1.3445 C   0  0  0  0  0  0
    0.9840   -1.2137    0.6340 C   0  0  0  0  0  0
   -1.1330   -4.2622   -0.1160 C   0  0  0  0  0  0
   -1.3138   -1.9549   -1.0106 C   0  0  0  0  0  0
    0.6668   -4.8988    1.3680 C   0  0  0  0  0  0
    2.3281   -1.2044    0.4625 O   0  0  0  0  0  0
    0.2624   -0.2425    0.7967 O   0  0  0  0  0  0
   -0.4758   -5.2330    0.6419 C   0  0  0  0  0  0
   -2.6375   -1.9457   -0.7231 O   0  0  0  0  0  0
   -0.7356   -1.2608   -1.8314 O   0  0  0  0  0  0
    2.9270    0.1002    0.4852 C   0  0  0  0  0  0
   -3.4021   -0.9760   -1.4547 C   0  0  0  0  0  0
    4.4421   -0.0414    0.3601 C   0  0  0  0  0  0
   -4.8517   -1.0130   -0.9772 C   0  0  0  0  0  0
    5.0513   -0.7948    1.5490 C   0  0  0  0  0  0
   -4.9793   -0.6770    0.5136 C   0  0  0  0  0  0
    6.5798   -0.8879    1.4762 C   0  0  0  0  0  0
   -6.4378   -0.5786    0.9745 C   0  0  0  0  0  0
    7.3247    0.1625    2.3081 C   0  0  0  0  0  0
   -6.9733    0.8541    1.0770 C   0  0  0  0  0  0
    7.0905    1.6036    1.8539 C   0  0  0  0  0  0
   -7.0048    1.6083   -0.2531 C   0  0  0  0  0  0
    7.9741    2.5830    2.6337 C   0  0  0  0  0  0
   -7.6687    2.9803   -0.0936 C   0  0  0  0  0  0
    7.8708    4.0348    2.1301 C   0  0  0  0  0  0
   -7.5909    3.8497   -1.3620 C   0  0  0  0  0  0
    8.8801    4.9138    2.8723 C   0  0  0  0  0  0
    6.4647    4.6130    2.2938 C   0  0  0  0  0  0
   -8.1522    5.2433   -1.0708 C   0  0  0  0  0  0
   -8.3379    3.2287   -2.5427 C   0  0  0  0  0  0
    2.0363   -3.3422    1.9330 H   0  0  0  0  0  0
   -2.0144   -4.5411   -0.6909 H   0  0  0  0  0  0
    1.1759   -5.6582    1.9600 H   0  0  0  0  0  0
   -0.8533   -6.2543    0.6623 H   0  0  0  0  0  0
    2.6705    0.6123    1.4201 H   0  0  0  0  0  0
    2.5449    0.6812   -0.3621 H   0  0  0  0  0  0
   -3.3634   -1.2210   -2.5223 H   0  0  0  0  0  0
   -2.9801    0.0237   -1.2975 H   0  0  0  0  0  0
    4.8811    0.9557    0.2672 H   0  0  0  0  0  0
    4.6771   -0.5907   -0.5598 H   0  0  0  0  0  0
   -5.2592   -2.0179   -1.1429 H   0  0  0  0  0  0
   -5.4396   -0.3179   -1.5838 H   0  0  0  0  0  0
    4.6497   -1.8161    1.5489 H   0  0  0  0  0  0
    4.7383   -0.3374    2.4949 H   0  0  0  0  0  0
   -4.4374    0.2465    0.7488 H   0  0  0  0  0  0
   -4.4941   -1.4767    1.0874 H   0  0  0  0  0  0
    6.9226   -0.8555    0.4352 H   0  0  0  0  0  0
    6.8753   -1.8707    1.8657 H   0  0  0  0  0  0
   -6.5058   -1.0183    1.9780 H   0  0  0  0  0  0
   -7.0919   -1.1792    0.3315 H   0  0  0  0  0  0
    8.3973   -0.0627    2.2522 H   0  0  0  0  0  0
    7.0397    0.0603    3.3627 H   0  0  0  0  0  0
   -6.3689    1.4148    1.8010 H   0  0  0  0  0  0
   -7.9895    0.8081    1.4886 H   0  0  0  0  0  0
    6.0391    1.8629    2.0101 H   0  0  0  0  0  0
    7.3028    1.6911    0.7820 H   0  0  0  0  0  0
   -7.5510    1.0107   -0.9909 H   0  0  0  0  0  0
   -5.9841    1.7484   -0.6250 H   0  0  0  0  0  0
    9.0189    2.2563    2.5531 H   0  0  0  0  0  0
    7.7126    2.5391    3.6989 H   0  0  0  0  0  0
   -7.1778    3.5148    0.7302 H   0  0  0  0  0  0
   -8.7174    2.8451    0.2006 H   0  0  0  0  0  0
    8.1281    4.0559    1.0634 H   0  0  0  0  0  0
   -6.5369    3.9649   -1.6452 H   0  0  0  0  0  0
    8.8512    5.9422    2.4967 H   0  0  0  0  0  0
    9.8995    4.5384    2.7340 H   0  0  0  0  0  0
    8.6704    4.9395    3.9471 H   0  0  0  0  0  0
    6.4420    5.6680    1.9996 H   0  0  0  0  0  0
    6.1256    4.5450    3.3330 H   0  0  0  0  0  0
    5.7413    4.0875    1.6631 H   0  0  0  0  0  0
   -8.0680    5.8891   -1.9514 H   0  0  0  0  0  0
   -7.6018    5.7223   -0.2541 H   0  0  0  0  0  0
   -9.2087    5.1948   -0.7855 H   0  0  0  0  0  0
   -8.3212    3.8994   -3.4087 H   0  0  0  0  0  0
   -9.3849    3.0301   -2.2899 H   0  0  0  0  0  0
   -7.8773    2.2868   -2.8554 H   0  0  0  0  0  0
  1  2  2  0  0  0
  1  3  1  0  0  0
  1  4  1  0  0  0
  2  5  1  0  0  0
  2  6  1  0  0  0
  3  7  2  0  0  0
  3 33  1  0  0  0
  4  8  1  0  0  0
  4  9  2  0  0  0
  5 10  2  0  0  0
  5 34  1  0  0  0
  6 11  1  0  0  0
  6 12  2  0  0  0
  7 10  1  0  0  0
  7 35  1  0  0  0
  8 13  1  0  0  0
 10 36  1  0  0  0
 11 14  1  0  0  0
 13 15  1  0  0  0
 13 37  1  0  0  0
 13 38  1  0  0  0
 14 16  1  0  0  0
 14 39  1  0  0  0
 14 40  1  0  0  0
 15 17  1  0  0  0
 15 41  1  0  0  0
 15 42  1  0  0  0
 16 18  1  0  0  0
 16 43  1  0  0  0
 16 44  1  0  0  0
 17 19  1  0  0  0
 17 45  1  0  0  0
 17 46  1  0  0  0
 18 20  1  0  0  0
 18 47  1  0  0  0
 18 48  1  0  0  0
 19 21  1  0  0  0
 19 49  1  0  0  0
 19 50  1  0  0  0
 20 22  1  0  0  0
 20 51  1  0  0  0
 20 52  1  0  0  0
 21 23  1  0  0  0
 21 53  1  0  0  0
 21 54  1  0  0  0
 22 24  1  0  0  0
 22 55  1  0  0  0
 22 56  1  0  0  0
 23 25  1  0  0  0
 23 57  1  0  0  0
 23 58  1  0  0  0
 24 26  1  0  0  0
 24 59  1  0  0  0
 24 60  1  0  0  0
 25 27  1  0  0  0
 25 61  1  0  0  0
 25 62  1  0  0  0
 26 28  1  0  0  0
 26 63  1  0  0  0
 26 64  1  0  0  0
 27 29  1  0  0  0
 27 30  1  0  0  0
 27 65  1  0  0  0
 28 31  1  0  0  0
 28 32  1  0  0  0
 28 66  1  0  0  0
 29 67  1  0  0  0
 29 68  1  0  0  0
 29 69  1  0  0  0
 30 70  1  0  0  0
 30 71  1  0  0  0
 30 72  1  0  0  0
 31 73  1  0  0  0
 31 74  1  0  0  0
 31 75  1  0  0  0
 32 76  1  0  0  0
 32 77  1  0  0  0
 32 78  1  0  0  0
M  END
>  <Name>
tox-230

>  <substance>
Diisodecyl phthalate

>  <CASRN>
26761-40-0

>  <from_NCI>
1

>  <RBA>
0.000000

>  <method>
RUC

>  <chemical_class>
Phthalate

>  <set>
0

$$$$
tox-231
  Cerius2 12190218263D 1   1.00000                          
 Structure written by MMmdl.
 60 60  0  0  0  0  0  0  0  0999 V2000
    1.0066   -3.0173    1.8471 C   0  0  0  0  0  0
    2.0318   -3.5602    2.7609 C   0  0  0  0  0  0
    2.9256   -2.7072    3.4223 C   0  0  0  0  0  0
    2.8199   -1.2368    3.3479 C   0  0  0  0  0  0
    3.9548   -3.2449    4.2072 C   0  0  0  0  0  0
    4.0756   -4.6286    4.3472 C   0  0  0  0  0  0
    3.1766   -5.4785    3.7028 C   0  0  0  0  0  0
    2.1586   -4.9496    2.9067 C   0  0  0  0  0  0
    1.2255   -2.1489    1.0181 O   0  0  0  0  0  0
   -0.1814   -3.6138    2.1088 O   0  0  0  0  0  0
    3.7517   -0.4961    3.0785 O   0  0  0  0  0  0
    1.5637   -0.8763    3.7074 O   0  0  0  0  0  0
   -1.3080   -3.1450    1.3458 C   0  0  0  0  0  0
   -1.4119   -3.9209    0.0367 C   0  0  0  0  0  0
   -2.6357   -3.4925   -0.7724 C   0  0  0  0  0  0
   -2.7402   -4.2802   -2.0815 C   0  0  0  0  0  0
   -3.8910   -3.8094   -2.9898 C   0  0  0  0  0  0
   -5.2641   -4.0207   -2.3505 C   0  0  0  0  0  0
   -3.8276   -4.5452   -4.3303 C   0  0  0  0  0  0
    1.2863    0.5364    3.7411 C   0  0  0  0  0  0
    0.7958    0.9970    2.3724 C   0  0  0  0  0  0
    0.4140    2.4766    2.3750 C   0  0  0  0  0  0
   -0.0814    2.9200    0.9952 C   0  0  0  0  0  0
   -0.3786    4.4279    0.9048 C   0  0  0  0  0  0
   -1.5256    4.8528    1.8226 C   0  0  0  0  0  0
   -0.7090    4.8048   -0.5414 C   0  0  0  0  0  0
    4.6577   -2.5913    4.7214 H   0  0  0  0  0  0
    4.8720   -5.0455    4.9621 H   0  0  0  0  0  0
    3.2760   -6.5576    3.8120 H   0  0  0  0  0  0
    1.4813   -5.6275    2.3902 H   0  0  0  0  0  0
   -1.2412   -2.0638    1.1740 H   0  0  0  0  0  0
   -2.1985   -3.3187    1.9597 H   0  0  0  0  0  0
   -1.4571   -4.9950    0.2552 H   0  0  0  0  0  0
   -0.4992   -3.7728   -0.5530 H   0  0  0  0  0  0
   -2.5719   -2.4201   -0.9925 H   0  0  0  0  0  0
   -3.5350   -3.6486   -0.1664 H   0  0  0  0  0  0
   -2.8580   -5.3479   -1.8558 H   0  0  0  0  0  0
   -1.7941   -4.1779   -2.6288 H   0  0  0  0  0  0
   -3.7665   -2.7375   -3.1892 H   0  0  0  0  0  0
   -6.0633   -3.7451   -3.0472 H   0  0  0  0  0  0
   -5.3877   -3.4011   -1.4573 H   0  0  0  0  0  0
   -5.4121   -5.0674   -2.0640 H   0  0  0  0  0  0
   -4.6167   -4.1956   -5.0044 H   0  0  0  0  0  0
   -3.9492   -5.6257   -4.1971 H   0  0  0  0  0  0
   -2.8666   -4.3701   -4.8255 H   0  0  0  0  0  0
    2.1655    1.1028    4.0704 H   0  0  0  0  0  0
    0.5045    0.6865    4.4934 H   0  0  0  0  0  0
   -0.0638    0.3850    2.0717 H   0  0  0  0  0  0
    1.5742    0.8101    1.6227 H   0  0  0  0  0  0
    1.2826    3.0794    2.6657 H   0  0  0  0  0  0
   -0.3656    2.6419    3.1266 H   0  0  0  0  0  0
   -0.9796    2.3481    0.7290 H   0  0  0  0  0  0
    0.6839    2.6657    0.2503 H   0  0  0  0  0  0
    0.5210    4.9828    1.1992 H   0  0  0  0  0  0
   -1.7596    5.9142    1.6853 H   0  0  0  0  0  0
   -1.2660    4.7137    2.8763 H   0  0  0  0  0  0
   -2.4344    4.2776    1.6153 H   0  0  0  0  0  0
   -0.8869    5.8816   -0.6326 H   0  0  0  0  0  0
   -1.6045    4.2817   -0.8943 H   0  0  0  0  0  0
    0.1197    4.5475   -1.2097 H   0  0  0  0  0  0
  1  2  1  0  0  0
  1  9  2  0  0  0
  1 10  1  0  0  0
  2  3  2  0  0  0
  2  8  1  0  0  0
  3  4  1  0  0  0
  3  5  1  0  0  0
  4 11  2  0  0  0
  4 12  1  0  0  0
  5  6  2  0  0  0
  5 27  1  0  0  0
  6  7  1  0  0  0
  6 28  1  0  0  0
  7  8  2  0  0  0
  7 29  1  0  0  0
  8 30  1  0  0  0
 10 13  1  0  0  0
 12 20  1  0  0  0
 13 14  1  0  0  0
 13 31  1  0  0  0
 13 32  1  0  0  0
 14 15  1  0  0  0
 14 33  1  0  0  0
 14 34  1  0  0  0
 15 16  1  0  0  0
 15 35  1  0  0  0
 15 36  1  0  0  0
 16 17  1  0  0  0
 16 37  1  0  0  0
 16 38  1  0  0  0
 17 18  1  0  0  0
 17 19  1  0  0  0
 17 39  1  0  0  0
 18 40  1  0  0  0
 18 41  1  0  0  0
 18 42  1  0  0  0
 19 43  1  0  0  0
 19 44  1  0  0  0
 19 45  1  0  0  0
 20 21  1  0  0  0
 20 46  1  0  0  0
 20 47  1  0  0  0
 21 22  1  0  0  0
 21 48  1  0  0  0
 21 49  1  0  0  0
 22 23  1  0  0  0
 22 50  1  0  0  0
 22 51  1  0  0  0
 23 24  1  0  0  0
 23 52  1  0  0  0
 23 53  1  0  0  0
 24 25  1  0  0  0
 24 26  1  0  0  0
 24 54  1  0  0  0
 25 55  1  0  0  0
 25 56  1  0  0  0
 25 57  1  0  0  0
 26 58  1  0  0  0
 26 59  1  0  0  0
 26 60  1  0  0  0
M  END
>  <Name>
tox-231

>  <substance>
Diisoheptyl phthalate

>  <CASRN>
41451-28-9

>  <from_NCI>
0

>  <RBA>
0.000000

>  <method>
RUC

>  <chemical_class>
Phthalate

>  <set>
0

$$$$
tox-232
  Cerius2 12190218263D 1   1.00000                          
 Structure written by MMmdl.
 72 72  0  0  0  0  0  0  0  0999 V2000
    0.6087   -1.5052   -0.4157 C   0  0  0  0  0  0
   -0.4410   -1.3591   -1.3312 C   0  0  0  0  0  0
    1.1016   -0.3505    0.3625 C   0  0  0  0  0  0
    1.1509   -2.7767   -0.1743 C   0  0  0  0  0  0
   -0.9755   -0.0242   -1.6658 C   0  0  0  0  0  0
   -0.9434   -2.4836   -2.0032 C   0  0  0  0  0  0
    2.4565   -0.3360    0.3259 O   0  0  0  0  0  0
    0.3778    0.4520    0.9303 O   0  0  0  0  0  0
    0.6470   -3.8914   -0.8473 C   0  0  0  0  0  0
   -2.3284   -0.0592   -1.5945 O   0  0  0  0  0  0
   -0.2823    0.9398   -1.9502 O   0  0  0  0  0  0
   -0.3997   -3.7457   -1.7574 C   0  0  0  0  0  0
    3.0634    0.7593    1.0347 C   0  0  0  0  0  0
   -2.9766    1.1915   -1.8879 C   0  0  0  0  0  0
    4.5765    0.6562    0.8511 C   0  0  0  0  0  0
   -4.4791    0.9981   -1.6906 C   0  0  0  0  0  0
    5.3681    1.8537    1.4295 C   0  0  0  0  0  0
   -5.3098    2.2948   -1.8430 C   0  0  0  0  0  0
    6.8340    1.7547    0.9317 C   0  0  0  0  0  0
    5.2523    1.8994    2.9527 C   0  0  0  0  0  0
   -6.7487    2.0149   -1.3354 C   0  0  0  0  0  0
   -5.2696    2.8002   -3.2848 C   0  0  0  0  0  0
    7.8350    2.9086    1.2348 C   0  0  0  0  0  0
   -7.7732    3.1836   -1.2305 C   0  0  0  0  0  0
    9.0104    2.7798    0.2376 C   0  0  0  0  0  0
    8.4327    2.7988    2.6486 C   0  0  0  0  0  0
    7.1976    4.2925    1.0449 C   0  0  0  0  0  0
   -8.8953    2.7355   -0.2647 C   0  0  0  0  0  0
   -8.4412    3.4891   -2.5828 C   0  0  0  0  0  0
   -7.1381    4.4612   -0.6628 C   0  0  0  0  0  0
    1.9553   -2.9100    0.5471 H   0  0  0  0  0  0
   -1.7473   -2.3828   -2.7307 H   0  0  0  0  0  0
    1.0680   -4.8777   -0.6571 H   0  0  0  0  0  0
   -0.7895   -4.6173   -2.2814 H   0  0  0  0  0  0
    2.7894    0.6848    2.0915 H   0  0  0  0  0  0
    2.6963    1.7056    0.6211 H   0  0  0  0  0  0
   -2.7464    1.4673   -2.9214 H   0  0  0  0  0  0
   -2.6023    1.9631   -1.2055 H   0  0  0  0  0  0
    4.7785    0.5658   -0.2246 H   0  0  0  0  0  0
    4.9316   -0.2841    1.2931 H   0  0  0  0  0  0
   -4.6328    0.5768   -0.6880 H   0  0  0  0  0  0
   -4.8406    0.2301   -2.3869 H   0  0  0  0  0  0
    4.9211    2.7685    1.0215 H   0  0  0  0  0  0
   -4.8525    3.0543   -1.1972 H   0  0  0  0  0  0
    6.7795    1.6546   -0.1622 H   0  0  0  0  0  0
    7.2662    0.8084    1.2860 H   0  0  0  0  0  0
    5.6207    2.8487    3.3471 H   0  0  0  0  0  0
    5.8131    1.0833    3.4195 H   0  0  0  0  0  0
    4.2134    1.8268    3.2860 H   0  0  0  0  0  0
   -6.6406    1.5895   -0.3269 H   0  0  0  0  0  0
   -7.1891    1.2106   -1.9413 H   0  0  0  0  0  0
   -5.6676    3.8144   -3.3579 H   0  0  0  0  0  0
   -5.8436    2.1483   -3.9512 H   0  0  0  0  0  0
   -4.2478    2.8572   -3.6695 H   0  0  0  0  0  0
    9.7694    3.5508    0.4129 H   0  0  0  0  0  0
    8.6672    2.8872   -0.7977 H   0  0  0  0  0  0
    9.4999    1.8033    0.3287 H   0  0  0  0  0  0
    9.2515    3.5156    2.7835 H   0  0  0  0  0  0
    8.8407    1.7981    2.8294 H   0  0  0  0  0  0
    7.7046    3.0105    3.4329 H   0  0  0  0  0  0
    7.9440    5.0884    1.1510 H   0  0  0  0  0  0
    6.4148    4.4860    1.7848 H   0  0  0  0  0  0
    6.7520    4.3877    0.0484 H   0  0  0  0  0  0
   -9.6694    3.5055   -0.1675 H   0  0  0  0  0  0
   -8.5011    2.5386    0.7388 H   0  0  0  0  0  0
   -9.3797    1.8190   -0.6204 H   0  0  0  0  0  0
   -9.2699    4.1965   -2.4584 H   0  0  0  0  0  0
   -8.8523    2.5801   -3.0357 H   0  0  0  0  0  0
   -7.7551    3.9404   -3.3009 H   0  0  0  0  0  0
   -7.8956    5.2342   -0.4884 H   0  0  0  0  0  0
   -6.3969    4.8867   -1.3463 H   0  0  0  0  0  0
   -6.6416    4.2629    0.2936 H   0  0  0  0  0  0
  1  2  2  0  0  0
  1  3  1  0  0  0
  1  4  1  0  0  0
  2  5  1  0  0  0
  2  6  1  0  0  0
  3  7  1  0  0  0
  3  8  2  0  0  0
  4  9  2  0  0  0
  4 31  1  0  0  0
  5 10  1  0  0  0
  5 11  2  0  0  0
  6 12  2  0  0  0
  6 32  1  0  0  0
  7 13  1  0  0  0
  9 12  1  0  0  0
  9 33  1  0  0  0
 10 14  1  0  0  0
 12 34  1  0  0  0
 13 15  1  0  0  0
 13 35  1  0  0  0
 13 36  1  0  0  0
 14 16  1  0  0  0
 14 37  1  0  0  0
 14 38  1  0  0  0
 15 17  1  0  0  0
 15 39  1  0  0  0
 15 40  1  0  0  0
 16 18  1  0  0  0
 16 41  1  0  0  0
 16 42  1  0  0  0
 17 19  1  0  0  0
 17 20  1  0  0  0
 17 43  1  0  0  0
 18 21  1  0  0  0
 18 22  1  0  0  0
 18 44  1  0  0  0
 19 23  1  0  0  0
 19 45  1  0  0  0
 19 46  1  0  0  0
 20 47  1  0  0  0
 20 48  1  0  0  0
 20 49  1  0  0  0
 21 24  1  0  0  0
 21 50  1  0  0  0
 21 51  1  0  0  0
 22 52  1  0  0  0
 22 53  1  0  0  0
 22 54  1  0  0  0
 23 25  1  0  0  0
 23 26  1  0  0  0
 23 27  1  0  0  0
 24 28  1  0  0  0
 24 29  1  0  0  0
 24 30  1  0  0  0
 25 55  1  0  0  0
 25 56  1  0  0  0
 25 57  1  0  0  0
 26 58  1  0  0  0
 26 59  1  0  0  0
 26 60  1  0  0  0
 27 61  1  0  0  0
 27 62  1  0  0  0
 27 63  1  0  0  0
 28 64  1  0  0  0
 28 65  1  0  0  0
 28 66  1  0  0  0
 29 67  1  0  0  0
 29 68  1  0  0  0
 29 69  1  0  0  0
 30 70  1  0  0  0
 30 71  1  0  0  0
 30 72  1  0  0  0
M  END
>  <Name>
tox-232

>  <substance>
Diisononyl phthalate

>  <CASRN>
28553-12-0

>  <from_NCI>
1

>  <RBA>
0.000000

>  <method>
RUC,RUC

>  <chemical_class>
Phthalate

>  <set>
0

$$$$
tox-233
  Cerius2 12190218263D 1   1.00000                          
 Structure written by MMmdl.
 59 62  0  0  0  0  0  0  0  0999 V2000
   -4.2037   -1.3392   -2.6897 C   0  0  0  0  0  0
   -4.0198   -0.0344   -2.2622 C   0  0  0  0  0  0
   -2.7325    0.5070   -2.2264 C   0  0  0  0  0  0
   -3.1198   -2.1080   -3.0938 C   0  0  0  0  0  0
   -1.8200   -1.5684   -3.0718 C   0  0  0  0  0  0
   -0.6821   -2.4555   -3.5178 C   0  0  0  0  0  0
    0.6036   -1.6927   -3.8172 C   0  0  0  0  0  0
    0.9117   -0.7264   -2.6719 C   0  0  0  0  0  0
    2.2520   -0.0128   -2.8604 C   0  0  0  0  0  0
    3.5233   -0.8260   -3.0807 C   0  0  0  0  0  0
    4.6539    0.1745   -2.7728 C   0  0  0  0  0  0
    3.9759    1.4197   -2.1635 C   0  0  0  0  0  0
    2.6096    0.8950   -1.6660 C   0  0  0  0  0  0
    2.7992    0.1518   -0.3183 C   0  0  0  0  0  0
    1.5162    1.9732   -1.5360 C   0  0  0  0  0  0
    0.0801    1.3885   -1.4471 C   0  0  0  0  0  0
   -0.2055    0.3617   -2.5945 C   0  0  0  0  0  0
   -1.6088   -0.2533   -2.6014 C   0  0  0  0  0  0
   -5.4727   -1.8370   -2.7076 O   0  0  0  0  0  0
    4.7848    1.9865   -1.1445 O   0  0  0  0  0  0
   -0.1355    0.7441   -0.1813 O   0  0  0  0  0  0
   -0.5081    1.6523    0.8636 C   0  0  0  0  0  0
   -0.7085    0.8475    2.1586 C   0  0  0  0  0  0
   -0.9707    1.6726    3.3582 N   0  0  0  0  0  0
   -0.9387    0.8191    4.5554 C   0  0  0  0  0  0
   -2.2771    2.3397    3.2748 C   0  0  0  0  0  0
   -4.8707    0.5712   -1.9587 H   0  0  0  0  0  0
   -2.6316    1.5406   -1.9029 H   0  0  0  0  0  0
   -3.2702   -3.1309   -3.4348 H   0  0  0  0  0  0
   -0.9748   -3.0114   -4.4167 H   0  0  0  0  0  0
   -0.4928   -3.1886   -2.7235 H   0  0  0  0  0  0
    0.5016   -1.1403   -4.7603 H   0  0  0  0  0  0
    1.4168   -2.4140   -3.9547 H   0  0  0  0  0  0
    0.9249   -1.3108   -1.7438 H   0  0  0  0  0  0
    2.1459    0.6196   -3.7584 H   0  0  0  0  0  0
    3.5982   -1.2063   -4.1044 H   0  0  0  0  0  0
    3.5742   -1.6842   -2.4015 H   0  0  0  0  0  0
    5.1868    0.4510   -3.6896 H   0  0  0  0  0  0
    5.3935   -0.2684   -2.0965 H   0  0  0  0  0  0
    3.8455    2.1759   -2.9482 H   0  0  0  0  0  0
    2.9578    0.8678    0.4965 H   0  0  0  0  0  0
    3.6680   -0.5146   -0.3268 H   0  0  0  0  0  0
    1.9428   -0.4664   -0.0438 H   0  0  0  0  0  0
    1.5535    2.6297   -2.4155 H   0  0  0  0  0  0
    1.7305    2.6082   -0.6695 H   0  0  0  0  0  0
   -0.6181    2.2290   -1.5424 H   0  0  0  0  0  0
   -0.1593    0.9374   -3.5327 H   0  0  0  0  0  0
   -5.4379   -2.7620   -3.0325 H   0  0  0  0  0  0
    4.2922    2.7604   -0.7997 H   0  0  0  0  0  0
   -1.4357    2.1579    0.5764 H   0  0  0  0  0  0
    0.2799    2.3983    1.0079 H   0  0  0  0  0  0
    0.2103    0.2662    2.3174 H   0  0  0  0  0  0
   -1.5037    0.1050    2.0060 H   0  0  0  0  0  0
   -1.0971    1.4191    5.4585 H   0  0  0  0  0  0
    0.0438    0.3462    4.6633 H   0  0  0  0  0  0
   -1.7013    0.0324    4.5231 H   0  0  0  0  0  0
   -2.4723    2.9136    4.1880 H   0  0  0  0  0  0
   -3.0976    1.6267    3.1351 H   0  0  0  0  0  0
   -2.2978    3.0624    2.4533 H   0  0  0  0  0  0
  1  2  2  0  0  0
  1  4  1  0  0  0
  1 19  1  0  0  0
  2  3  1  0  0  0
  2 27  1  0  0  0
  3 18  2  0  0  0
  3 28  1  0  0  0
  4  5  2  0  0  0
  4 29  1  0  0  0
  5  6  1  0  0  0
  5 18  1  0  0  0
  6  7  1  0  0  0
  6 30  1  0  0  0
  6 31  1  0  0  0
  7  8  1  0  0  0
  7 32  1  0  0  0
  7 33  1  0  0  0
  8  9  1  0  0  0
  8 17  1  0  0  0
  8 34  1  0  0  0
  9 10  1  0  0  0
  9 13  1  0  0  0
  9 35  1  0  0  0
 10 11  1  0  0  0
 10 36  1  0  0  0
 10 37  1  0  0  0
 11 12  1  0  0  0
 11 38  1  0  0  0
 11 39  1  0  0  0
 12 13  1  0  0  0
 12 20  1  0  0  0
 12 40  1  0  0  0
 13 14  1  0  0  0
 13 15  1  0  0  0
 14 41  1  0  0  0
 14 42  1  0  0  0
 14 43  1  0  0  0
 15 16  1  0  0  0
 15 44  1  0  0  0
 15 45  1  0  0  0
 16 17  1  0  0  0
 16 21  1  0  0  0
 16 46  1  0  0  0
 17 18  1  0  0  0
 17 47  1  0  0  0
 19 48  1  0  0  0
 20 49  1  0  0  0
 21 22  1  0  0  0
 22 23  1  0  0  0
 22 50  1  0  0  0
 22 51  1  0  0  0
 23 24  1  0  0  0
 23 52  1  0  0  0
 23 53  1  0  0  0
 24 25  1  0  0  0
 24 26  1  0  0  0
 25 54  1  0  0  0
 25 55  1  0  0  0
 25 56  1  0  0  0
 26 57  1  0  0  0
 26 58  1  0  0  0
 26 59  1  0  0  0
M  END
>  <Name>
tox-233

>  <substance>
11b-[2-(N,N -Dimethylamino)ethoxy]estra-1,3,5(10) triene-3,17b-diol

>  <CASRN>


>  <from_NCI>
0

>  <RBA>
1.600000

>  <method>
RUC

>  <chemical_class>
Steroid, phenolic

>  <set>
2

$$$$
tox-234
  Cerius2 12190218263D 1   1.00000                          
 Structure written by MMmdl.
 59 62  0  0  0  0  0  0  0  0999 V2000
   -1.8227    0.4831    1.2388 C   0  0  0  0  0  0
   -0.6605   -0.4385    1.0710 C   0  0  0  0  0  0
   -3.0707   -0.0290    1.4172 C   0  0  0  0  0  0
   -1.6176    1.9527    1.2683 C   0  0  0  0  0  0
   -0.3405   -1.1243   -0.1193 C   0  0  0  0  0  0
    0.1506   -0.6312    2.2043 C   0  0  0  0  0  0
   -3.2988   -1.4904    1.2710 C   0  0  0  0  0  0
   -4.3411    0.7818    1.6181 C   0  0  0  0  0  0
   -1.4074    2.6258    2.4788 C   0  0  0  0  0  0
   -1.6233    2.6832    0.0724 C   0  0  0  0  0  0
    0.8028   -1.9536   -0.1493 C   0  0  0  0  0  0
   -1.2262   -1.0171   -1.6819 S   0  0  0  0  0  0
    1.2664   -1.4672    2.1584 C   0  0  0  0  0  0
   -3.2467   -2.0873   -0.0087 C   0  0  0  0  0  0
   -3.5133   -2.2902    2.4009 C   0  0  0  0  0  0
   -4.7230    0.9649    3.0811 C   0  0  0  0  0  0
   -1.2118    4.0085    2.4931 C   0  0  0  0  0  0
   -1.4301    4.0661    0.0891 C   0  0  0  0  0  0
    1.6044   -2.1255    0.9803 C   0  0  0  0  0  0
   -2.9861   -1.2537   -1.2404 C   0  0  0  0  0  0
   -3.4124   -3.4769   -0.1251 C   0  0  0  0  0  0
   -3.6858   -3.6685    2.2671 C   0  0  0  0  0  0
   -1.2254    4.7279    1.2989 C   0  0  0  0  0  0
    2.7261   -2.9023    1.0646 O   0  0  0  0  0  0
   -3.6345   -4.2606    1.0072 C   0  0  0  0  0  0
    3.2038   -3.5050   -0.1470 C   0  0  0  0  0  0
    4.5389   -4.2047    0.1737 C   0  0  0  0  0  0
    5.2548   -4.8893   -0.9216 N   0  0  0  0  0  0
    5.6355   -3.9654   -1.9930 C   0  0  0  0  0  0
    4.4877   -6.0139   -1.4625 C   0  0  0  0  0  0
   -0.0852   -0.1320    3.1431 H   0  0  0  0  0  0
   -5.1760    0.3041    1.0885 H   0  0  0  0  0  0
   -4.2476    1.7708    1.1552 H   0  0  0  0  0  0
   -1.3962    2.0788    3.4199 H   0  0  0  0  0  0
   -1.7847    2.1816   -0.8801 H   0  0  0  0  0  0
    1.0456   -2.4683   -1.0758 H   0  0  0  0  0  0
    1.8749   -1.5953    3.0519 H   0  0  0  0  0  0
   -3.5296   -1.8502    3.3959 H   0  0  0  0  0  0
   -5.5947    1.6233    3.1591 H   0  0  0  0  0  0
   -3.9104    1.4154    3.6581 H   0  0  0  0  0  0
   -4.9888    0.0138    3.5515 H   0  0  0  0  0  0
   -1.0494    4.5246    3.4378 H   0  0  0  0  0  0
   -1.4411    4.6276   -0.8436 H   0  0  0  0  0  0
   -3.4643   -0.2713   -1.1631 H   0  0  0  0  0  0
   -3.4706   -1.7275   -2.1030 H   0  0  0  0  0  0
   -3.3654   -3.9573   -1.1020 H   0  0  0  0  0  0
   -3.8519   -4.2830    3.1502 H   0  0  0  0  0  0
   -1.0758    5.8061    1.3111 H   0  0  0  0  0  0
   -3.7611   -5.3370    0.9066 H   0  0  0  0  0  0
    3.3641   -2.7300   -0.9046 H   0  0  0  0  0  0
    2.4704   -4.2374   -0.5004 H   0  0  0  0  0  0
    4.3685   -4.9254    0.9855 H   0  0  0  0  0  0
    5.2176   -3.4654    0.6211 H   0  0  0  0  0  0
    6.2939   -4.4692   -2.7093 H   0  0  0  0  0  0
    6.2001   -3.1177   -1.5901 H   0  0  0  0  0  0
    4.7711   -3.5772   -2.5425 H   0  0  0  0  0  0
    5.0996   -6.5806   -2.1733 H   0  0  0  0  0  0
    3.5764   -5.6938   -1.9788 H   0  0  0  0  0  0
    4.2090   -6.7108   -0.6644 H   0  0  0  0  0  0
  1  2  1  0  0  0
  1  3  2  0  0  0
  1  4  1  0  0  0
  2  5  2  0  0  0
  2  6  1  0  0  0
  3  7  1  0  0  0
  3  8  1  0  0  0
  4  9  2  0  0  0
  4 10  1  0  0  0
  5 11  1  0  0  0
  5 12  1  0  0  0
  6 13  2  0  0  0
  6 31  1  0  0  0
  7 14  2  0  0  0
  7 15  1  0  0  0
  8 16  1  0  0  0
  8 32  1  0  0  0
  8 33  1  0  0  0
  9 17  1  0  0  0
  9 34  1  0  0  0
 10 18  2  0  0  0
 10 35  1  0  0  0
 11 19  2  0  0  0
 11 36  1  0  0  0
 12 20  1  0  0  0
 13 19  1  0  0  0
 13 37  1  0  0  0
 14 20  1  0  0  0
 14 21  1  0  0  0
 15 22  2  0  0  0
 15 38  1  0  0  0
 16 39  1  0  0  0
 16 40  1  0  0  0
 16 41  1  0  0  0
 17 23  2  0  0  0
 17 42  1  0  0  0
 18 23  1  0  0  0
 18 43  1  0  0  0
 19 24  1  0  0  0
 20 44  1  0  0  0
 20 45  1  0  0  0
 21 25  2  0  0  0
 21 46  1  0  0  0
 22 25  1  0  0  0
 22 47  1  0  0  0
 23 48  1  0  0  0
 24 26  1  0  0  0
 25 49  1  0  0  0
 26 27  1  0  0  0
 26 50  1  0  0  0
 26 51  1  0  0  0
 27 28  1  0  0  0
 27 52  1  0  0  0
 27 53  1  0  0  0
 28 29  1  0  0  0
 28 30  1  0  0  0
 29 54  1  0  0  0
 29 55  1  0  0  0
 29 56  1  0  0  0
 30 57  1  0  0  0
 30 58  1  0  0  0
 30 59  1  0  0  0
M  END
>  <Name>
tox-234

>  <substance>
3-[2-(Dimethylamino)ethoxy]-11-ethyl-12-phenyl)-6H - dibenzo[b,f ]thioctin

>  <CASRN>
85850-79-9

>  <from_NCI>
1

>  <RBA>
1.100000

>  <method>
RUC

>  <chemical_class>
Triphenylethylene

>  <set>
0

$$$$
tox-235
  Cerius2 12190218263D 1   1.00000                          
 Structure written by MMmdl.
 56 59  0  0  0  0  0  0  0  0999 V2000
    1.5195    0.7956   -1.0898 C   0  0  0  0  0  0
    0.6191   -0.3759   -0.8471 C   0  0  0  0  0  0
    2.8607    0.6499   -1.2955 C   0  0  0  0  0  0
    0.9355    2.1641   -1.1635 C   0  0  0  0  0  0
    0.7359   -1.5708   -1.5698 C   0  0  0  0  0  0
   -0.4454   -0.2741    0.0624 C   0  0  0  0  0  0
    3.5343   -0.6850   -1.2277 C   0  0  0  0  0  0
    3.8020    1.8100   -1.6337 C   0  0  0  0  0  0
    0.9838    3.0254   -0.0575 C   0  0  0  0  0  0
    0.3136    2.5946   -2.3431 C   0  0  0  0  0  0
    1.7566   -1.7723   -2.4728 O   0  0  0  0  0  0
   -0.1871   -2.6118   -1.4175 C   0  0  0  0  0  0
   -1.3605   -1.3233    0.2362 C   0  0  0  0  0  0
    2.9886   -1.8152   -1.8583 C   0  0  0  0  0  0
    4.7689   -0.8455   -0.5762 C   0  0  0  0  0  0
    4.3049    1.7411   -3.0728 C   0  0  0  0  0  0
    0.4233    4.3016   -0.1352 C   0  0  0  0  0  0
   -0.2451    3.8721   -2.4172 C   0  0  0  0  0  0
   -1.2379   -2.4944   -0.5085 C   0  0  0  0  0  0
    3.6673   -3.0382   -1.8947 C   0  0  0  0  0  0
    5.4424   -2.0729   -0.5889 C   0  0  0  0  0  0
   -0.1896    4.7241   -1.3144 C   0  0  0  0  0  0
   -2.0653   -3.5808   -0.4424 O   0  0  0  0  0  0
    4.8972   -3.1656   -1.2569 C   0  0  0  0  0  0
   -3.1565   -3.5142    0.4884 C   0  0  0  0  0  0
   -3.9445   -4.8349    0.3913 C   0  0  0  0  0  0
   -5.1192   -5.0166    1.2684 N   0  0  0  0  0  0
   -6.1634   -4.0234    1.0038 C   0  0  0  0  0  0
   -4.7531   -5.0093    2.6872 C   0  0  0  0  0  0
   -0.5863    0.6299    0.6529 H   0  0  0  0  0  0
    4.6536    1.8403   -0.9462 H   0  0  0  0  0  0
    3.3237    2.7850   -1.5060 H   0  0  0  0  0  0
    1.4589    2.7058    0.8685 H   0  0  0  0  0  0
    0.2630    1.9385   -3.2105 H   0  0  0  0  0  0
   -0.0736   -3.5212   -2.0036 H   0  0  0  0  0  0
   -2.1606   -1.1791    0.9575 H   0  0  0  0  0  0
    5.2308   -0.0204   -0.0378 H   0  0  0  0  0  0
    4.9306    2.6123   -3.2929 H   0  0  0  0  0  0
    3.4706    1.7377   -3.7822 H   0  0  0  0  0  0
    4.9095    0.8459   -3.2497 H   0  0  0  0  0  0
    0.4647    4.9667    0.7255 H   0  0  0  0  0  0
   -0.7252    4.2026   -3.3366 H   0  0  0  0  0  0
    3.2288   -3.8932   -2.4044 H   0  0  0  0  0  0
    6.3990   -2.1703   -0.0778 H   0  0  0  0  0  0
   -0.6263    5.7196   -1.3739 H   0  0  0  0  0  0
    5.4252   -4.1172   -1.2715 H   0  0  0  0  0  0
   -3.8077   -2.6731    0.2262 H   0  0  0  0  0  0
   -2.7618   -3.3891    1.5026 H   0  0  0  0  0  0
   -3.2491   -5.6682    0.5621 H   0  0  0  0  0  0
   -4.2637   -4.9719   -0.6510 H   0  0  0  0  0  0
   -7.0685   -4.2666    1.5717 H   0  0  0  0  0  0
   -6.4453   -4.0323   -0.0547 H   0  0  0  0  0  0
   -5.8572   -3.0071    1.2744 H   0  0  0  0  0  0
   -5.6191   -5.2791    3.3021 H   0  0  0  0  0  0
   -4.3900   -4.0325    3.0243 H   0  0  0  0  0  0
   -3.9793   -5.7578    2.8900 H   0  0  0  0  0  0
  1  2  1  0  0  0
  1  3  2  0  0  0
  1  4  1  0  0  0
  2  5  2  0  0  0
  2  6  1  0  0  0
  3  7  1  0  0  0
  3  8  1  0  0  0
  4  9  2  0  0  0
  4 10  1  0  0  0
  5 11  1  0  0  0
  5 12  1  0  0  0
  6 13  2  0  0  0
  6 30  1  0  0  0
  7 14  2  0  0  0
  7 15  1  0  0  0
  8 16  1  0  0  0
  8 31  1  0  0  0
  8 32  1  0  0  0
  9 17  1  0  0  0
  9 33  1  0  0  0
 10 18  2  0  0  0
 10 34  1  0  0  0
 11 14  1  0  0  0
 12 19  2  0  0  0
 12 35  1  0  0  0
 13 19  1  0  0  0
 13 36  1  0  0  0
 14 20  1  0  0  0
 15 21  2  0  0  0
 15 37  1  0  0  0
 16 38  1  0  0  0
 16 39  1  0  0  0
 16 40  1  0  0  0
 17 22  2  0  0  0
 17 41  1  0  0  0
 18 22  1  0  0  0
 18 42  1  0  0  0
 19 23  1  0  0  0
 20 24  2  0  0  0
 20 43  1  0  0  0
 21 24  1  0  0  0
 21 44  1  0  0  0
 22 45  1  0  0  0
 23 25  1  0  0  0
 24 46  1  0  0  0
 25 26  1  0  0  0
 25 47  1  0  0  0
 25 48  1  0  0  0
 26 27  1  0  0  0
 26 49  1  0  0  0
 26 50  1  0  0  0
 27 28  1  0  0  0
 27 29  1  0  0  0
 28 51  1  0  0  0
 28 52  1  0  0  0
 28 53  1  0  0  0
 29 54  1  0  0  0
 29 55  1  0  0  0
 29 56  1  0  0  0
M  END
>  <Name>
tox-235

>  <substance>
3-[2-(Dimethylamino)ethoxy]-10- ethyl-11-phenyldibenz[b,f ]oxepin

>  <CASRN>
85850-76-6

>  <from_NCI>
1

>  <RBA>
0.020000

>  <method>
RUC

>  <chemical_class>
Triphenylethylene

>  <set>
1

$$$$
tox-236
  Cerius2 12190218263D 1   1.00000                          
 Structure written by MMmdl.
 56 59  0  0  0  0  0  0  0  0999 V2000
    0.4803    0.3441   -2.4160 C   0  0  0  0  0  0
   -0.2846   -0.9254   -2.1851 C   0  0  0  0  0  0
    1.7632    0.3571   -2.8811 C   0  0  0  0  0  0
   -0.1577    1.6428   -2.0604 C   0  0  0  0  0  0
    0.2074   -1.9855   -1.3951 C   0  0  0  0  0  0
   -1.5844   -1.0345   -2.7129 C   0  0  0  0  0  0
    2.5060   -0.8883   -3.2558 C   0  0  0  0  0  0
    2.6030    1.6267   -3.0461 C   0  0  0  0  0  0
   -0.1793    2.0644   -0.7240 C   0  0  0  0  0  0
   -0.7514    2.4471   -3.0438 C   0  0  0  0  0  0
    1.8841   -1.9985   -0.7558 S   0  0  0  0  0  0
   -0.5947   -3.1068   -1.1371 C   0  0  0  0  0  0
   -2.3769   -2.1575   -2.4566 C   0  0  0  0  0  0
    2.6986   -1.9551   -2.3527 C   0  0  0  0  0  0
    3.0901   -0.9851   -4.5314 C   0  0  0  0  0  0
    3.6642    1.7535   -1.9573 C   0  0  0  0  0  0
   -0.7770    3.2783   -0.3786 C   0  0  0  0  0  0
   -1.3505    3.6589   -2.6941 C   0  0  0  0  0  0
   -1.8889   -3.1775   -1.6471 C   0  0  0  0  0  0
    3.4876   -3.0568   -2.7148 C   0  0  0  0  0  0
    3.8672   -2.0897   -4.8887 C   0  0  0  0  0  0
   -1.3616    4.0742   -1.3631 C   0  0  0  0  0  0
   -2.5975   -4.3203   -1.3991 O   0  0  0  0  0  0
    4.0743   -3.1201   -3.9775 C   0  0  0  0  0  0
   -3.8544   -4.0910   -0.7340 C   0  0  0  0  0  0
   -3.6576   -4.1130    0.7941 C   0  0  0  0  0  0
   -4.9169   -4.1494    1.5720 N   0  0  0  0  0  0
   -5.6661   -2.8923    1.4367 C   0  0  0  0  0  0
   -4.6072   -4.3790    2.9920 C   0  0  0  0  0  0
   -1.9959   -0.2443   -3.3387 H   0  0  0  0  0  0
    1.9928    2.5338   -3.0239 H   0  0  0  0  0  0
    3.0880    1.6541   -4.0279 H   0  0  0  0  0  0
    0.2727    1.4516    0.0541 H   0  0  0  0  0  0
   -0.7462    2.1351   -4.0868 H   0  0  0  0  0  0
   -0.2101   -3.9335   -0.5431 H   0  0  0  0  0  0
   -3.3646   -2.2225   -2.9073 H   0  0  0  0  0  0
    2.9452   -0.1985   -5.2699 H   0  0  0  0  0  0
    4.2183    2.6895   -2.0819 H   0  0  0  0  0  0
    4.3869    0.9324   -2.0010 H   0  0  0  0  0  0
    3.2113    1.7594   -0.9602 H   0  0  0  0  0  0
   -0.7866    3.6028    0.6605 H   0  0  0  0  0  0
   -1.8091    4.2795   -3.4621 H   0  0  0  0  0  0
    3.6394   -3.8826   -2.0215 H   0  0  0  0  0  0
    4.3135   -2.1415   -5.8806 H   0  0  0  0  0  0
   -1.8275    5.0202   -1.0922 H   0  0  0  0  0  0
    4.6823   -3.9794   -4.2544 H   0  0  0  0  0  0
   -4.5104   -4.9192   -1.0271 H   0  0  0  0  0  0
   -4.3402   -3.1677   -1.0665 H   0  0  0  0  0  0
   -3.0345   -3.2613    1.0977 H   0  0  0  0  0  0
   -3.0677   -5.0096    1.0285 H   0  0  0  0  0  0
   -6.5739   -2.9204    2.0505 H   0  0  0  0  0  0
   -6.0022   -2.7429    0.4059 H   0  0  0  0  0  0
   -5.0731   -2.0221    1.7411 H   0  0  0  0  0  0
   -5.5298   -4.4465    3.5794 H   0  0  0  0  0  0
   -3.9844   -3.5810    3.4132 H   0  0  0  0  0  0
   -4.0836   -5.3330    3.1212 H   0  0  0  0  0  0
  1  2  1  0  0  0
  1  3  2  0  0  0
  1  4  1  0  0  0
  2  5  2  0  0  0
  2  6  1  0  0  0
  3  7  1  0  0  0
  3  8  1  0  0  0
  4  9  2  0  0  0
  4 10  1  0  0  0
  5 11  1  0  0  0
  5 12  1  0  0  0
  6 13  2  0  0  0
  6 30  1  0  0  0
  7 14  2  0  0  0
  7 15  1  0  0  0
  8 16  1  0  0  0
  8 31  1  0  0  0
  8 32  1  0  0  0
  9 17  1  0  0  0
  9 33  1  0  0  0
 10 18  2  0  0  0
 10 34  1  0  0  0
 11 14  1  0  0  0
 12 19  2  0  0  0
 12 35  1  0  0  0
 13 19  1  0  0  0
 13 36  1  0  0  0
 14 20  1  0  0  0
 15 21  2  0  0  0
 15 37  1  0  0  0
 16 38  1  0  0  0
 16 39  1  0  0  0
 16 40  1  0  0  0
 17 22  2  0  0  0
 17 41  1  0  0  0
 18 22  1  0  0  0
 18 42  1  0  0  0
 19 23  1  0  0  0
 20 24  2  0  0  0
 20 43  1  0  0  0
 21 24  1  0  0  0
 21 44  1  0  0  0
 22 45  1  0  0  0
 23 25  1  0  0  0
 24 46  1  0  0  0
 25 26  1  0  0  0
 25 47  1  0  0  0
 25 48  1  0  0  0
 26 27  1  0  0  0
 26 49  1  0  0  0
 26 50  1  0  0  0
 27 28  1  0  0  0
 27 29  1  0  0  0
 28 51  1  0  0  0
 28 52  1  0  0  0
 28 53  1  0  0  0
 29 54  1  0  0  0
 29 55  1  0  0  0
 29 56  1  0  0  0
M  END
>  <Name>
tox-236

>  <substance>
7-[2-(Dimethylamino)ethoxy]-11- ethyl-10-phenyldibenz[b,f ]thiepin

>  <CASRN>
85850-77-7

>  <from_NCI>
1

>  <RBA>
0.100000

>  <method>
RUC

>  <chemical_class>
Triphenylethylene

>  <set>
0

$$$$
tox-237
  Cerius2 12190218263D 1   1.00000                          
 Structure written by MMmdl.
 62 65  0  0  0  0  0  0  0  0999 V2000
   -4.1978   -1.1275   -2.8226 C   0  0  0  0  0  0
   -4.0175    0.1639   -2.3547 C   0  0  0  0  0  0
   -2.7343    0.7153   -2.3224 C   0  0  0  0  0  0
   -3.1145   -1.8727   -3.2702 C   0  0  0  0  0  0
   -1.8191   -1.3225   -3.2520 C   0  0  0  0  0  0
   -0.6815   -2.1843   -3.7456 C   0  0  0  0  0  0
    0.5915   -1.4002   -4.0437 C   0  0  0  0  0  0
    0.9124   -0.4680   -2.8737 C   0  0  0  0  0  0
    2.2426    0.2640   -3.0649 C   0  0  0  0  0  0
    3.5169   -0.5298   -3.3333 C   0  0  0  0  0  0
    4.6439    0.4721   -3.0167 C   0  0  0  0  0  0
    3.9660    1.6917   -2.3575 C   0  0  0  0  0  0
    2.6145    1.1388   -1.8505 C   0  0  0  0  0  0
    2.8370    0.3573   -0.5296 C   0  0  0  0  0  0
    1.5135    2.2017   -1.6680 C   0  0  0  0  0  0
    0.0853    1.5994   -1.5667 C   0  0  0  0  0  0
   -0.2132    0.6062   -2.7403 C   0  0  0  0  0  0
   -1.6109   -0.0217   -2.7420 C   0  0  0  0  0  0
   -5.4628   -1.6356   -2.8361 O   0  0  0  0  0  0
    4.7890    2.2356   -1.3372 O   0  0  0  0  0  0
   -0.0969    0.9137   -0.3174 O   0  0  0  0  0  0
   -0.4403    1.7834    0.7650 C   0  0  0  0  0  0
   -0.5905    0.9316    2.0229 C   0  0  0  0  0  0
   -0.9634    1.7954    3.2331 C   0  0  0  0  0  0
   -1.1356    1.1013    4.5234 N   0  0  0  0  0  0
    0.0995    0.4620    4.9840 C   0  0  0  0  0  0
   -2.2357    0.1342    4.4963 C   0  0  0  0  0  0
   -4.8681    0.7514   -2.0167 H   0  0  0  0  0  0
   -2.6363    1.7381   -1.9655 H   0  0  0  0  0  0
   -3.2621   -2.8852   -3.6424 H   0  0  0  0  0  0
   -0.9852   -2.7147   -4.6563 H   0  0  0  0  0  0
   -0.4712   -2.9401   -2.9782 H   0  0  0  0  0  0
    0.4670   -0.8188   -4.9664 H   0  0  0  0  0  0
    1.4085   -2.1089   -4.2192 H   0  0  0  0  0  0
    0.9488   -1.0814   -1.9652 H   0  0  0  0  0  0
    2.1137    0.9221   -3.9412 H   0  0  0  0  0  0
    3.5759   -0.8786   -4.3693 H   0  0  0  0  0  0
    3.5885   -1.4073   -2.6813 H   0  0  0  0  0  0
    5.1566    0.7812   -3.9346 H   0  0  0  0  0  0
    5.4004    0.0164   -2.3681 H   0  0  0  0  0  0
    3.8138    2.4697   -3.1164 H   0  0  0  0  0  0
    3.0010    1.0502    0.3040 H   0  0  0  0  0  0
    3.7137   -0.2972   -0.5734 H   0  0  0  0  0  0
    1.9934   -0.2802   -0.2597 H   0  0  0  0  0  0
    1.5263    2.8830   -2.5293 H   0  0  0  0  0  0
    1.7400    2.8146   -0.7889 H   0  0  0  0  0  0
   -0.6235    2.4348   -1.6198 H   0  0  0  0  0  0
   -0.1900    1.2117   -3.6604 H   0  0  0  0  0  0
   -5.4258   -2.5490   -3.1923 H   0  0  0  0  0  0
    4.2954    2.9933   -0.9594 H   0  0  0  0  0  0
   -1.3847    2.2906    0.5376 H   0  0  0  0  0  0
    0.3438    2.5326    0.9109 H   0  0  0  0  0  0
    0.3497    0.3953    2.1967 H   0  0  0  0  0  0
   -1.3505    0.1635    1.8383 H   0  0  0  0  0  0
   -1.8913    2.3390    3.0118 H   0  0  0  0  0  0
   -0.2013    2.5748    3.3646 H   0  0  0  0  0  0
   -0.0271    0.0908    6.0073 H   0  0  0  0  0  0
    0.9218    1.1853    5.0129 H   0  0  0  0  0  0
    0.3996   -0.3819    4.3539 H   0  0  0  0  0  0
   -2.4277   -0.2468    5.5056 H   0  0  0  0  0  0
   -2.0297   -0.7225    3.8459 H   0  0  0  0  0  0
   -3.1624    0.6122    4.1604 H   0  0  0  0  0  0
  1  2  2  0  0  0
  1  4  1  0  0  0
  1 19  1  0  0  0
  2  3  1  0  0  0
  2 28  1  0  0  0
  3 18  2  0  0  0
  3 29  1  0  0  0
  4  5  2  0  0  0
  4 30  1  0  0  0
  5  6  1  0  0  0
  5 18  1  0  0  0
  6  7  1  0  0  0
  6 31  1  0  0  0
  6 32  1  0  0  0
  7  8  1  0  0  0
  7 33  1  0  0  0
  7 34  1  0  0  0
  8  9  1  0  0  0
  8 17  1  0  0  0
  8 35  1  0  0  0
  9 10  1  0  0  0
  9 13  1  0  0  0
  9 36  1  0  0  0
 10 11  1  0  0  0
 10 37  1  0  0  0
 10 38  1  0  0  0
 11 12  1  0  0  0
 11 39  1  0  0  0
 11 40  1  0  0  0
 12 13  1  0  0  0
 12 20  1  0  0  0
 12 41  1  0  0  0
 13 14  1  0  0  0
 13 15  1  0  0  0
 14 42  1  0  0  0
 14 43  1  0  0  0
 14 44  1  0  0  0
 15 16  1  0  0  0
 15 45  1  0  0  0
 15 46  1  0  0  0
 16 17  1  0  0  0
 16 21  1  0  0  0
 16 47  1  0  0  0
 17 18  1  0  0  0
 17 48  1  0  0  0
 19 49  1  0  0  0
 20 50  1  0  0  0
 21 22  1  0  0  0
 22 23  1  0  0  0
 22 51  1  0  0  0
 22 52  1  0  0  0
 23 24  1  0  0  0
 23 53  1  0  0  0
 23 54  1  0  0  0
 24 25  1  0  0  0
 24 55  1  0  0  0
 24 56  1  0  0  0
 25 26  1  0  0  0
 25 27  1  0  0  0
 26 57  1  0  0  0
 26 58  1  0  0  0
 26 59  1  0  0  0
 27 60  1  0  0  0
 27 61  1  0  0  0
 27 62  1  0  0  0
M  END
>  <Name>
tox-237

>  <substance>
11b-[3-(N,N -Dimethylamino)-propoxy]estra-1,3,5 (10)-triene-3,17b- diol

>  <CASRN>
130043-38-8

>  <from_NCI>
0

>  <RBA>
2.600000

>  <method>
RUC

>  <chemical_class>
Steroid, phenolic

>  <set>
1

$$$$
tox-238
  Cerius2 12190218263D 1   1.00000                          
 Structure written by MMmdl.
 40 41  0  0  0  0  0  0  0  0999 V2000
    3.4900    1.2538    1.4170 C   0  0  0  0  0  0
    2.3511    2.2671    1.2668 C   0  0  0  0  0  0
    1.5590    2.0550   -0.0802 C   0  0  0  0  0  0
    4.5092    1.2163    0.7386 O   0  0  0  0  0  0
    3.3079    0.3508    2.4007 O   0  0  0  0  0  0
    2.4065    2.2420   -1.3685 C   0  0  0  0  0  0
    1.5636    2.2896   -2.6413 C   0  0  0  0  0  0
    3.0002    3.6708    1.3100 C   0  0  0  0  0  0
    1.3799    2.2099    2.4718 C   0  0  0  0  0  0
    0.7635    0.7470   -0.1170 C   0  0  0  0  0  0
   -0.6299    0.7797    0.0745 C   0  0  0  0  0  0
   -1.4048   -0.3930    0.0501 C   0  0  0  0  0  0
   -0.7716   -1.6361   -0.1748 C   0  0  0  0  0  0
    0.6166   -1.6682   -0.3696 C   0  0  0  0  0  0
    1.3737   -0.4931   -0.3420 C   0  0  0  0  0  0
   -2.7956   -0.3559    0.2445 C   0  0  0  0  0  0
   -3.5508   -1.5298    0.2175 C   0  0  0  0  0  0
   -2.9196   -2.7462   -0.0041 C   0  0  0  0  0  0
   -1.5427   -2.8109   -0.1998 C   0  0  0  0  0  0
   -3.6906   -3.8715   -0.0235 O   0  0  0  0  0  0
    0.8188    2.8697   -0.1140 H   0  0  0  0  0  0
    4.1037   -0.2326    2.3887 H   0  0  0  0  0  0
    3.1532    1.4481   -1.4745 H   0  0  0  0  0  0
    2.9577    3.1861   -1.3194 H   0  0  0  0  0  0
    2.2022    2.5071   -3.5037 H   0  0  0  0  0  0
    0.8032    3.0745   -2.5788 H   0  0  0  0  0  0
    1.0630    1.3362   -2.8338 H   0  0  0  0  0  0
    2.2594    4.4562    1.1240 H   0  0  0  0  0  0
    3.8056    3.7815    0.5770 H   0  0  0  0  0  0
    3.4532    3.8629    2.2904 H   0  0  0  0  0  0
    0.5784    2.9500    2.3674 H   0  0  0  0  0  0
    1.9036    2.4198    3.4123 H   0  0  0  0  0  0
    0.9150    1.2251    2.5861 H   0  0  0  0  0  0
   -1.1225    1.7372    0.2488 H   0  0  0  0  0  0
    1.1265   -2.6147   -0.5476 H   0  0  0  0  0  0
    2.4471   -0.5693   -0.5061 H   0  0  0  0  0  0
   -3.3038    0.5918    0.4193 H   0  0  0  0  0  0
   -4.6269   -1.4859    0.3696 H   0  0  0  0  0  0
   -1.0602   -3.7710   -0.3726 H   0  0  0  0  0  0
   -3.1090   -4.6442   -0.1889 H   0  0  0  0  0  0
  1  2  1  0  0  0
  1  4  2  0  0  0
  1  5  1  0  0  0
  2  3  1  0  0  0
  2  8  1  0  0  0
  2  9  1  0  0  0
  3  6  1  0  0  0
  3 10  1  0  0  0
  3 21  1  0  0  0
  5 22  1  0  0  0
  6  7  1  0  0  0
  6 23  1  0  0  0
  6 24  1  0  0  0
  7 25  1  0  0  0
  7 26  1  0  0  0
  7 27  1  0  0  0
  8 28  1  0  0  0
  8 29  1  0  0  0
  8 30  1  0  0  0
  9 31  1  0  0  0
  9 32  1  0  0  0
  9 33  1  0  0  0
 10 11  2  0  0  0
 10 15  1  0  0  0
 11 12  1  0  0  0
 11 34  1  0  0  0
 12 13  2  0  0  0
 12 16  1  0  0  0
 13 14  1  0  0  0
 13 19  1  0  0  0
 14 15  2  0  0  0
 14 35  1  0  0  0
 15 36  1  0  0  0
 16 17  2  0  0  0
 16 37  1  0  0  0
 17 18  1  0  0  0
 17 38  1  0  0  0
 18 19  2  0  0  0
 18 20  1  0  0  0
 19 39  1  0  0  0
 20 40  1  0  0  0
M  END
>  <Name>
tox-238

>  <substance>
a,a-Dimethyl-b-ethylallenolic acid

>  <CASRN>
15372-37-9

>  <from_NCI>
0

>  <RBA>
1.000000

>  <method>
RUC

>  <chemical_class>
Polycyclic aromatic hydrocarbon

>  <set>
1

$$$$
tox-239
  Cerius2 12190218263D 1   1.00000                          
 Structure written by MMmdl.
 48 49  0  0  0  0  0  0  0  0999 V2000
    0.2653   -0.0967   -0.5910 C   0  0  0  0  0  0
    0.5532    1.3790   -0.9575 C   0  0  0  0  0  0
    1.0817    1.5609   -2.3792 C   0  0  0  0  0  0
   -0.4908   -0.3171    0.7787 C   0  0  0  0  0  0
    0.3004    0.0429    2.0654 C   0  0  0  0  0  0
    0.9618   -1.1655    2.7279 C   0  0  0  0  0  0
   -1.9427    0.2304    0.7381 C   0  0  0  0  0  0
   -2.9817   -0.6328    0.2649 C   0  0  0  0  0  0
   -4.3140   -0.1837    0.2120 C   0  0  0  0  0  0
   -4.6401    1.0980    0.6128 C   0  0  0  0  0  0
   -5.9466    1.4805    0.5479 O   0  0  0  0  0  0
   -3.6562    1.9577    1.0700 C   0  0  0  0  0  0
   -2.3043    1.5522    1.1284 C   0  0  0  0  0  0
    1.4933   -1.0046   -0.7070 C   0  0  0  0  0  0
    1.3417   -2.2992   -1.2339 C   0  0  0  0  0  0
    2.4361   -3.1598   -1.3492 C   0  0  0  0  0  0
    3.6918   -2.7347   -0.9365 C   0  0  0  0  0  0
    4.7370   -3.6013   -1.0638 O   0  0  0  0  0  0
    3.8705   -1.4622   -0.4082 C   0  0  0  0  0  0
    2.7739   -0.6020   -0.2922 C   0  0  0  0  0  0
   -1.3585    2.5920    1.6786 C   0  0  0  0  0  0
   -2.7346   -2.0594   -0.1685 C   0  0  0  0  0  0
   -0.4240   -0.4356   -1.3790 H   0  0  0  0  0  0
    1.2556    1.8386   -0.2550 H   0  0  0  0  0  0
   -0.3766    1.9533   -0.9031 H   0  0  0  0  0  0
    1.1763    2.6276   -2.6075 H   0  0  0  0  0  0
    0.3968    1.1203   -3.1108 H   0  0  0  0  0  0
    2.0675    1.1072   -2.5124 H   0  0  0  0  0  0
   -0.6071   -1.4044    0.8630 H   0  0  0  0  0  0
   -0.3686    0.4535    2.8286 H   0  0  0  0  0  0
    1.0654    0.7984    1.8625 H   0  0  0  0  0  0
    1.5089   -0.8481    3.6216 H   0  0  0  0  0  0
    1.6679   -1.6691    2.0657 H   0  0  0  0  0  0
    0.2084   -1.8963    3.0402 H   0  0  0  0  0  0
   -5.1050   -0.8441   -0.1403 H   0  0  0  0  0  0
   -6.0153    2.4068    0.8638 H   0  0  0  0  0  0
   -3.9278    2.9630    1.3910 H   0  0  0  0  0  0
    0.3648   -2.6503   -1.5634 H   0  0  0  0  0  0
    2.3000   -4.1571   -1.7610 H   0  0  0  0  0  0
    5.5469   -3.1580   -0.7320 H   0  0  0  0  0  0
    4.8493   -1.1220   -0.0785 H   0  0  0  0  0  0
    2.9385    0.3850    0.1357 H   0  0  0  0  0  0
   -1.6703    3.5970    1.3706 H   0  0  0  0  0  0
   -0.3382    2.4784    1.3195 H   0  0  0  0  0  0
   -1.3590    2.5554    2.7725 H   0  0  0  0  0  0
   -3.6399   -2.5184   -0.5814 H   0  0  0  0  0  0
   -2.4249   -2.6683    0.6866 H   0  0  0  0  0  0
   -1.9776   -2.1023   -0.9551 H   0  0  0  0  0  0
  1  2  1  0  0  0
  1  4  1  0  0  0
  1 14  1  0  0  0
  1 23  1  0  0  0
  2  3  1  0  0  0
  2 24  1  0  0  0
  2 25  1  0  0  0
  3 26  1  0  0  0
  3 27  1  0  0  0
  3 28  1  0  0  0
  4  5  1  0  0  0
  4  7  1  0  0  0
  4 29  1  0  0  0
  5  6  1  0  0  0
  5 30  1  0  0  0
  5 31  1  0  0  0
  6 32  1  0  0  0
  6 33  1  0  0  0
  6 34  1  0  0  0
  7  8  2  0  0  0
  7 13  1  0  0  0
  8  9  1  0  0  0
  8 22  1  0  0  0
  9 10  2  0  0  0
  9 35  1  0  0  0
 10 11  1  0  0  0
 10 12  1  0  0  0
 11 36  1  0  0  0
 12 13  2  0  0  0
 12 37  1  0  0  0
 13 21  1  0  0  0
 14 15  2  0  0  0
 14 20  1  0  0  0
 15 16  1  0  0  0
 15 38  1  0  0  0
 16 17  2  0  0  0
 16 39  1  0  0  0
 17 18  1  0  0  0
 17 19  1  0  0  0
 18 40  1  0  0  0
 19 20  2  0  0  0
 19 41  1  0  0  0
 20 42  1  0  0  0
 21 43  1  0  0  0
 21 44  1  0  0  0
 21 45  1  0  0  0
 22 46  1  0  0  0
 22 47  1  0  0  0
 22 48  1  0  0  0
M  END
>  <Name>
tox-239

>  <substance>
2,6-Dimethylhexestrol

>  <CASRN>
334707-28-7

>  <from_NCI>
0

>  <RBA>
13.000000

>  <method>
RUC

>  <chemical_class>
Diphenolalkane

>  <set>
1

$$$$
tox-240
  Cerius2 12190218263D 1   1.00000                          
 Structure written by MMmdl.
 24 25  0  0  0  0  0  0  0  0999 V2000
   -0.4570    0.3613    0.0295 C   0  0  0  0  0  0
   -0.4581   -1.0556   -0.0123 C   0  0  0  0  0  0
   -1.7004    1.0504    0.0126 C   0  0  0  0  0  0
    0.7935    1.0146    0.0825 C   0  0  0  0  0  0
    0.7584   -1.7609    0.0037 C   0  0  0  0  0  0
   -1.6753   -1.7501   -0.0710 C   0  0  0  0  0  0
   -2.9010    0.3241   -0.0455 C   0  0  0  0  0  0
   -1.7742    2.5557    0.0545 C   0  0  0  0  0  0
    1.9954    0.2999    0.0978 C   0  0  0  0  0  0
    1.9870   -1.0939    0.0714 C   0  0  0  0  0  0
   -2.8881   -1.0661   -0.0873 C   0  0  0  0  0  0
    3.2740   -1.8652    0.0534 C   0  0  0  0  0  0
    0.8523    2.1018    0.1100 H   0  0  0  0  0  0
    0.7500   -2.8510   -0.0363 H   0  0  0  0  0  0
   -1.6894   -2.8393   -0.1044 H   0  0  0  0  0  0
   -3.8601    0.8415   -0.0592 H   0  0  0  0  0  0
   -1.3142    2.9335    0.9732 H   0  0  0  0  0  0
   -2.8108    2.9091    0.0382 H   0  0  0  0  0  0
   -1.2681    2.9852   -0.8160 H   0  0  0  0  0  0
    2.9373    0.8465    0.1315 H   0  0  0  0  0  0
   -3.8247   -1.6193   -0.1326 H   0  0  0  0  0  0
    3.5919   -2.0382   -0.9793 H   0  0  0  0  0  0
    3.1565   -2.8313    0.5554 H   0  0  0  0  0  0
    4.0643   -1.3200    0.5803 H   0  0  0  0  0  0
  1  2  2  0  0  0
  1  3  1  0  0  0
  1  4  1  0  0  0
  2  5  1  0  0  0
  2  6  1  0  0  0
  3  7  2  0  0  0
  3  8  1  0  0  0
  4  9  2  0  0  0
  4 13  1  0  0  0
  5 10  2  0  0  0
  5 14  1  0  0  0
  6 11  2  0  0  0
  6 15  1  0  0  0
  7 11  1  0  0  0
  7 16  1  0  0  0
  8 17  1  0  0  0
  8 18  1  0  0  0
  8 19  1  0  0  0
  9 10  1  0  0  0
  9 20  1  0  0  0
 10 12  1  0  0  0
 11 21  1  0  0  0
 12 22  1  0  0  0
 12 23  1  0  0  0
 12 24  1  0  0  0
M  END
>  <Name>
tox-240

>  <substance>
1,6-Dimethylnaphthalene

>  <CASRN>
575-43-9

>  <from_NCI>
1

>  <RBA>
0.000000

>  <method>
RUC

>  <chemical_class>
Polycyclic aromatic hydrocarbon

>  <set>
0

$$$$
tox-241
  Cerius2 12190218263D 1   1.00000                          
 Structure written by MMmdl.
 24 24  0  0  0  0  0  0  0  0999 V2000
    0.0790   -0.6798   -0.1384 C   0  0  0  0  0  0
    0.1373    0.6204   -0.6555 C   0  0  0  0  0  0
    1.2926   -1.3511    0.3709 C   0  0  0  0  0  0
   -1.1593   -1.3312   -0.0273 C   0  0  0  0  0  0
    1.4327    1.3017   -0.8566 C   0  0  0  0  0  0
   -1.0425    1.2622   -1.0632 C   0  0  0  0  0  0
    1.3446   -2.6106   -0.1285 O   0  0  0  0  0  0
    2.1043   -0.8268    1.1172 O   0  0  0  0  0  0
   -2.3286   -0.6866   -0.4351 C   0  0  0  0  0  0
    1.3519    2.5616   -0.3620 O   0  0  0  0  0  0
    2.4055    0.7842   -1.3826 O   0  0  0  0  0  0
   -2.2707    0.6081   -0.9495 C   0  0  0  0  0  0
    2.4876   -3.3644    0.2891 C   0  0  0  0  0  0
    2.5560    3.3249   -0.4910 C   0  0  0  0  0  0
   -1.2235   -2.3350    0.3895 H   0  0  0  0  0  0
   -1.0120    2.2658   -1.4841 H   0  0  0  0  0  0
   -3.2883   -1.1938   -0.3461 H   0  0  0  0  0  0
   -3.1843    1.1078   -1.2683 H   0  0  0  0  0  0
    2.4269   -4.3543   -0.1712 H   0  0  0  0  0  0
    2.4876   -3.4846    1.3768 H   0  0  0  0  0  0
    3.4082   -2.8783   -0.0481 H   0  0  0  0  0  0
    2.3768    4.3147   -0.0627 H   0  0  0  0  0  0
    2.8204    3.4436   -1.5463 H   0  0  0  0  0  0
    3.3705    2.8471    0.0622 H   0  0  0  0  0  0
  1  2  2  0  0  0
  1  3  1  0  0  0
  1  4  1  0  0  0
  2  5  1  0  0  0
  2  6  1  0  0  0
  3  7  1  0  0  0
  3  8  2  0  0  0
  4  9  2  0  0  0
  4 15  1  0  0  0
  5 10  1  0  0  0
  5 11  2  0  0  0
  6 12  2  0  0  0
  6 16  1  0  0  0
  7 13  1  0  0  0
  9 12  1  0  0  0
  9 17  1  0  0  0
 10 14  1  0  0  0
 12 18  1  0  0  0
 13 19  1  0  0  0
 13 20  1  0  0  0
 13 21  1  0  0  0
 14 22  1  0  0  0
 14 23  1  0  0  0
 14 24  1  0  0  0
M  END
>  <Name>
tox-241

>  <substance>
Dimethyl phthalate

>  <CASRN>
131-11-3

>  <from_NCI>
1

>  <RBA>
0.000000

>  <method>
RUC

>  <chemical_class>
Phthalate

>  <set>
1

$$$$
tox-242
  Cerius2 12190218263D 1   1.00000                          
 Structure written by MMmdl.
 34 35  0  0  0  0  0  0  0  0999 V2000
   -0.4309   -0.5274   -0.0099 C   0  0  0  0  0  0
    0.4302    0.5185    0.0026 C   0  0  0  0  0  0
   -1.8924   -0.3165   -0.0180 C   0  0  0  0  0  0
   -0.0478   -1.9884   -0.0097 C   0  0  0  0  0  0
    1.8921    0.3080    0.0001 C   0  0  0  0  0  0
    0.0462    1.9794    0.0138 C   0  0  0  0  0  0
   -2.5984   -0.2725   -1.2184 C   0  0  0  0  0  0
   -2.5982   -0.1579    1.1729 C   0  0  0  0  0  0
    2.5765    0.0650   -1.1893 C   0  0  0  0  0  0
    2.6208    0.3513    1.1868 C   0  0  0  0  0  0
   -3.9907   -0.0743   -1.2160 C   0  0  0  0  0  0
   -3.9904    0.0389    1.1519 C   0  0  0  0  0  0
    3.9694   -0.1284   -1.1803 C   0  0  0  0  0  0
    4.0133    0.1549    1.1727 C   0  0  0  0  0  0
   -4.7451    0.0887   -0.0370 C   0  0  0  0  0  0
    4.7462   -0.0914   -0.0053 C   0  0  0  0  0  0
   -6.0042    0.2660   -0.0453 O   0  0  0  0  0  0
    6.0058   -0.2660   -0.0076 O   0  0  0  0  0  0
   -0.5325   -2.5123    0.8222 H   0  0  0  0  0  0
    1.0269   -2.1558    0.0980 H   0  0  0  0  0  0
   -0.3608   -2.4647   -0.9453 H   0  0  0  0  0  0
    0.3931    2.4591    0.9357 H   0  0  0  0  0  0
   -1.0322    2.1465   -0.0509 H   0  0  0  0  0  0
    0.4995    2.5005   -0.8370 H   0  0  0  0  0  0
   -2.0812   -0.3898   -2.1692 H   0  0  0  0  0  0
   -2.0806   -0.1849    2.1304 H   0  0  0  0  0  0
    2.0415    0.0235   -2.1367 H   0  0  0  0  0  0
    2.1212    0.5356    2.1365 H   0  0  0  0  0  0
   -4.4942   -0.0487   -2.1866 H   0  0  0  0  0  0
   -4.4938    0.1566    2.1159 H   0  0  0  0  0  0
    4.4550   -0.3144   -2.1426 H   0  0  0  0  0  0
    4.5346    0.1999    2.1330 H   0  0  0  0  0  0
   -6.2846    0.3439    0.7533 H   0  0  0  0  0  0
    6.3012   -0.2091    0.7874 H   0  0  0  0  0  0
  1  2  2  0  0  0
  1  3  1  0  0  0
  1  4  1  0  0  0
  2  5  1  0  0  0
  2  6  1  0  0  0
  3  7  2  0  0  0
  3  8  1  0  0  0
  4 19  1  0  0  0
  4 20  1  0  0  0
  4 21  1  0  0  0
  5  9  2  0  0  0
  5 10  1  0  0  0
  6 22  1  0  0  0
  6 23  1  0  0  0
  6 24  1  0  0  0
  7 11  1  0  0  0
  7 25  1  0  0  0
  8 12  2  0  0  0
  8 26  1  0  0  0
  9 13  1  0  0  0
  9 27  1  0  0  0
 10 14  2  0  0  0
 10 28  1  0  0  0
 11 15  2  0  0  0
 11 29  1  0  0  0
 12 15  1  0  0  0
 12 30  1  0  0  0
 13 16  2  0  0  0
 13 31  1  0  0  0
 14 16  1  0  0  0
 14 32  1  0  0  0
 15 17  1  0  0  0
 16 18  1  0  0  0
 17 33  1  0  0  0
 18 34  1  0  0  0
M  END
>  <Name>
tox-242

>  <substance>
a,a-Dimethylstilbestrol

>  <CASRN>
552-80-7

>  <from_NCI>
1

>  <RBA>
72.000000

>  <method>
RBC,RUC

>  <chemical_class>
Stilbene

>  <set>
2

$$$$
tox-243
  Cerius2 12190218263D 1   1.00000                          
 Structure written by MMmdl.
 10  9  0  0  0  0  0  0  0  0999 V2000
   -0.0457    0.4747    0.6592 S   0  0  0  0  0  0
    0.4398   -1.2698    0.6950 C   0  0  0  0  0  0
    0.4398    0.7523   -1.0633 C   0  0  0  0  0  0
   -1.5459    0.5448    0.7399 O   0  0  0  0  0  0
    0.1986   -1.6770    1.6797 H   0  0  0  0  0  0
    1.5154   -1.3525    0.5229 H   0  0  0  0  0  0
   -0.1076   -1.8245   -0.0708 H   0  0  0  0  0  0
    0.1986    1.7840   -1.3298 H   0  0  0  0  0  0
   -0.1076    0.0710   -1.7190 H   0  0  0  0  0  0
    1.5154    0.5934   -1.1691 H   0  0  0  0  0  0
  1  2  1  0  0  0
  1  3  1  0  0  0
  1  4  2  0  0  0
  2  5  1  0  0  0
  2  6  1  0  0  0
  2  7  1  0  0  0
  3  8  1  0  0  0
  3  9  1  0  0  0
  3 10  1  0  0  0
M  END
>  <Name>
tox-243

>  <substance>
Dimethyl sulfoxide

>  <CASRN>
67-68-5

>  <from_NCI>
1

>  <RBA>
0.000000

>  <method>
MCF-7 cells

>  <chemical_class>
Sulfoxide

>  <set>
1

$$$$
tox-244
  Cerius2 12190218263D 1   1.00000                          
 Structure written by MMmdl.
 42 45  0  0  0  0  0  0  0  0999 V2000
    3.0257    2.5724   -0.8931 C   0  0  0  0  0  0
    4.2335    1.9834   -0.5473 C   0  0  0  0  0  0
    4.2842    0.6491   -0.1718 C   0  0  0  0  0  0
    3.1070   -0.1086   -0.1471 C   0  0  0  0  0  0
    1.8667    0.4557   -0.4877 C   0  0  0  0  0  0
    0.5948   -0.3252   -0.4997 C   0  0  0  0  0  0
    0.6575   -1.8469   -0.5090 C   0  0  0  0  0  0
   -0.4973   -2.4379   -1.3361 C   0  0  0  0  0  0
   -1.8212   -1.8076   -0.9858 C   0  0  0  0  0  0
   -3.0004   -2.5611   -1.1024 C   0  0  0  0  0  0
   -4.2254   -1.9779   -0.8119 C   0  0  0  0  0  0
   -4.2973   -0.6505   -0.4160 C   0  0  0  0  0  0
   -3.1236    0.1063   -0.3141 C   0  0  0  0  0  0
   -1.8663   -0.4523   -0.5971 C   0  0  0  0  0  0
   -0.5961    0.3282   -0.5262 C   0  0  0  0  0  0
   -0.6589    1.8498   -0.5121 C   0  0  0  0  0  0
    0.5390    2.4549   -1.2644 C   0  0  0  0  0  0
    1.8422    1.8178   -0.8540 C   0  0  0  0  0  0
    5.3591    2.7508   -0.5912 O   0  0  0  0  0  0
   -5.3465   -2.7442   -0.9302 O   0  0  0  0  0  0
   -0.7289    2.3886    0.9253 C   0  0  0  0  0  0
    0.6493   -2.4109    0.9203 C   0  0  0  0  0  0
    3.0015    3.6181   -1.1933 H   0  0  0  0  0  0
    5.2249    0.1762    0.1012 H   0  0  0  0  0  0
    3.1927   -1.1506    0.1516 H   0  0  0  0  0  0
    1.5766   -2.1864   -1.0029 H   0  0  0  0  0  0
   -0.5377   -3.5246   -1.1918 H   0  0  0  0  0  0
   -0.3149   -2.2614   -2.4046 H   0  0  0  0  0  0
   -2.9593   -3.6013   -1.4195 H   0  0  0  0  0  0
   -5.2516   -0.1823   -0.1859 H   0  0  0  0  0  0
   -3.2260    1.1428   -0.0020 H   0  0  0  0  0  0
   -1.5499    2.1983   -1.0492 H   0  0  0  0  0  0
    0.5710    3.5388   -1.0986 H   0  0  0  0  0  0
    0.4149    2.2977   -2.3442 H   0  0  0  0  0  0
    6.1226    2.1958   -0.3234 H   0  0  0  0  0  0
   -6.1237   -2.1940   -0.6933 H   0  0  0  0  0  0
   -0.8099    3.4811    0.9211 H   0  0  0  0  0  0
    0.1600    2.1226    1.5077 H   0  0  0  0  0  0
   -1.5993    1.9971    1.4610 H   0  0  0  0  0  0
    0.7308   -3.5032    0.9013 H   0  0  0  0  0  0
   -0.2700   -2.1545    1.4581 H   0  0  0  0  0  0
    1.4893   -2.0294    1.5093 H   0  0  0  0  0  0
  1  2  2  0  0  0
  1 18  1  0  0  0
  1 23  1  0  0  0
  2  3  1  0  0  0
  2 19  1  0  0  0
  3  4  2  0  0  0
  3 24  1  0  0  0
  4  5  1  0  0  0
  4 25  1  0  0  0
  5  6  1  0  0  0
  5 18  2  0  0  0
  6  7  1  0  0  0
  6 15  2  0  0  0
  7  8  1  0  0  0
  7 22  1  0  0  0
  7 26  1  0  0  0
  8  9  1  0  0  0
  8 27  1  0  0  0
  8 28  1  0  0  0
  9 10  1  0  0  0
  9 14  2  0  0  0
 10 11  2  0  0  0
 10 29  1  0  0  0
 11 12  1  0  0  0
 11 20  1  0  0  0
 12 13  2  0  0  0
 12 30  1  0  0  0
 13 14  1  0  0  0
 13 31  1  0  0  0
 14 15  1  0  0  0
 15 16  1  0  0  0
 16 17  1  0  0  0
 16 21  1  0  0  0
 16 32  1  0  0  0
 17 18  1  0  0  0
 17 33  1  0  0  0
 17 34  1  0  0  0
 19 35  1  0  0  0
 20 36  1  0  0  0
 21 37  1  0  0  0
 21 38  1  0  0  0
 21 39  1  0  0  0
 22 40  1  0  0  0
 22 41  1  0  0  0
 22 42  1  0  0  0
M  END
>  <Name>
tox-244

>  <substance>
5,11-trans -Dimethyl-5,6,11,12- tetrahydrochrysene-2,8-diol

>  <CASRN>


>  <from_NCI>
0

>  <RBA>
222.000000

>  <method>
hERa

>  <chemical_class>
Polycyclic aromatic hydrocarbon

>  <set>
2

$$$$
tox-245
  Cerius2 12190218263D 1   1.00000                          
 Structure written by MMmdl.
 42 45  0  0  0  0  0  0  0  0999 V2000
    2.6638    2.5128   -0.8356 C   0  0  0  0  0  0
    3.7465    1.8784   -1.4277 C   0  0  0  0  0  0
    3.6731    0.5378   -1.7759 C   0  0  0  0  0  0
    2.4979   -0.1801   -1.5226 C   0  0  0  0  0  0
    1.3816    0.4305   -0.9279 C   0  0  0  0  0  0
    0.1216   -0.3069   -0.6174 C   0  0  0  0  0  0
    0.1397   -1.8295   -0.5894 C   0  0  0  0  0  0
   -0.8198   -2.3694    0.4853 C   0  0  0  0  0  0
   -2.1691   -1.6999    0.4236 C   0  0  0  0  0  0
   -3.3148   -2.4114    0.8147 C   0  0  0  0  0  0
   -4.5559   -1.7914    0.7906 C   0  0  0  0  0  0
   -4.6743   -0.4681    0.3924 C   0  0  0  0  0  0
   -3.5306    0.2471    0.0168 C   0  0  0  0  0  0
   -2.2591   -0.3495    0.0258 C   0  0  0  0  0  0
   -1.0137    0.3865   -0.3417 C   0  0  0  0  0  0
   -1.0331    1.9091   -0.3749 C   0  0  0  0  0  0
    0.3194    2.4845    0.0798 C   0  0  0  0  0  0
    1.4794    1.7978   -0.5950 C   0  0  0  0  0  0
    4.8758    2.6082   -1.6513 O   0  0  0  0  0  0
   -5.6449   -2.5177    1.1706 O   0  0  0  0  0  0
   -1.4047    2.4284   -1.7725 C   0  0  0  0  0  0
   -0.2023   -2.4136   -1.9689 C   0  0  0  0  0  0
    2.7378    3.5630   -0.5603 H   0  0  0  0  0  0
    4.5151    0.0297   -2.2404 H   0  0  0  0  0  0
    2.4844   -1.2287   -1.8101 H   0  0  0  0  0  0
    1.1350   -2.1925   -0.3040 H   0  0  0  0  0  0
   -0.3995   -2.1841    1.4828 H   0  0  0  0  0  0
   -0.9235   -3.4561    0.3767 H   0  0  0  0  0  0
   -3.2353   -3.4478    1.1368 H   0  0  0  0  0  0
   -5.6415    0.0288    0.3696 H   0  0  0  0  0  0
   -3.6689    1.2820   -0.2868 H   0  0  0  0  0  0
   -1.7717    2.2954    0.3386 H   0  0  0  0  0  0
    0.4337    2.3477    1.1634 H   0  0  0  0  0  0
    0.3457    3.5642   -0.1127 H   0  0  0  0  0  0
    5.5438    2.0242   -2.0701 H   0  0  0  0  0  0
   -6.4385   -1.9450    1.1005 H   0  0  0  0  0  0
   -1.4505    3.5229   -1.7746 H   0  0  0  0  0  0
   -2.3837    2.0585   -2.0932 H   0  0  0  0  0  0
   -0.6758    2.1238   -2.5314 H   0  0  0  0  0  0
   -0.1511   -3.5076   -1.9449 H   0  0  0  0  0  0
    0.4969   -2.0692   -2.7374 H   0  0  0  0  0  0
   -1.2101   -2.1342   -2.2953 H   0  0  0  0  0  0
  1  2  2  0  0  0
  1 18  1  0  0  0
  1 23  1  0  0  0
  2  3  1  0  0  0
  2 19  1  0  0  0
  3  4  2  0  0  0
  3 24  1  0  0  0
  4  5  1  0  0  0
  4 25  1  0  0  0
  5  6  1  0  0  0
  5 18  2  0  0  0
  6  7  1  0  0  0
  6 15  2  0  0  0
  7  8  1  0  0  0
  7 22  1  0  0  0
  7 26  1  0  0  0
  8  9  1  0  0  0
  8 27  1  0  0  0
  8 28  1  0  0  0
  9 10  1  0  0  0
  9 14  2  0  0  0
 10 11  2  0  0  0
 10 29  1  0  0  0
 11 12  1  0  0  0
 11 20  1  0  0  0
 12 13  2  0  0  0
 12 30  1  0  0  0
 13 14  1  0  0  0
 13 31  1  0  0  0
 14 15  1  0  0  0
 15 16  1  0  0  0
 16 17  1  0  0  0
 16 21  1  0  0  0
 16 32  1  0  0  0
 17 18  1  0  0  0
 17 33  1  0  0  0
 17 34  1  0  0  0
 19 35  1  0  0  0
 20 36  1  0  0  0
 21 37  1  0  0  0
 21 38  1  0  0  0
 21 39  1  0  0  0
 22 40  1  0  0  0
 22 41  1  0  0  0
 22 42  1  0  0  0
M  END
>  <Name>
tox-245

>  <substance>
(5R ,11R )-5,11-Dimethyl-5,6,11,12- tetrahydrochrysene-2,8-diol

>  <CASRN>


>  <from_NCI>
0

>  <RBA>
24.000000

>  <method>
hERa

>  <chemical_class>
Polycyclic aromatic hydrocarbon

>  <set>
0

$$$$
tox-246
  Cerius2 12190218263D 1   1.00000                          
 Structure written by MMmdl.
 42 45  0  0  0  0  0  0  0  0999 V2000
    2.4430    2.4601   -2.0870 C   0  0  0  0  0  0
    3.6773    1.8270   -2.0590 C   0  0  0  0  0  0
    3.7803    0.5019   -1.6622 C   0  0  0  0  0  0
    2.6277   -0.2017   -1.2921 C   0  0  0  0  0  0
    1.3625    0.4082   -1.3055 C   0  0  0  0  0  0
    0.1081   -0.3155   -0.9444 C   0  0  0  0  0  0
    0.1115   -1.8382   -0.9138 C   0  0  0  0  0  0
   -1.2449   -2.3987   -1.3755 C   0  0  0  0  0  0
   -2.4006   -1.7012   -0.7044 C   0  0  0  0  0  0
   -3.5934   -2.4043   -0.4701 C   0  0  0  0  0  0
   -4.6721   -1.7597    0.1182 C   0  0  0  0  0  0
   -4.5864   -0.4204    0.4688 C   0  0  0  0  0  0
   -3.4028    0.2857    0.2219 C   0  0  0  0  0  0
   -2.2901   -0.3355   -0.3688 C   0  0  0  0  0  0
   -1.0212    0.3893   -0.6725 C   0  0  0  0  0  0
   -1.0233    1.9121   -0.6980 C   0  0  0  0  0  0
   -0.0536    2.4437   -1.7677 C   0  0  0  0  0  0
    1.2883    1.7601   -1.7016 C   0  0  0  0  0  0
    4.7754    2.5423   -2.4338 O   0  0  0  0  0  0
   -5.8098   -2.4781    0.3356 O   0  0  0  0  0  0
   -0.6812    2.4902    0.6840 C   0  0  0  0  0  0
    0.4716   -2.3638    0.4844 C   0  0  0  0  0  0
    2.3756    3.4977   -2.4079 H   0  0  0  0  0  0
    4.7422   -0.0050   -1.6363 H   0  0  0  0  0  0
    2.7540   -1.2384   -0.9895 H   0  0  0  0  0  0
    0.8491   -2.2309   -1.6248 H   0  0  0  0  0  0
   -1.2833   -3.4784   -1.1851 H   0  0  0  0  0  0
   -1.3531   -2.2587   -2.4593 H   0  0  0  0  0  0
   -3.6770   -3.4532   -0.7474 H   0  0  0  0  0  0
   -5.4252    0.0957    0.9303 H   0  0  0  0  0  0
   -3.3797    1.3337    0.5111 H   0  0  0  0  0  0
   -2.0135    2.2860   -0.9869 H   0  0  0  0  0  0
    0.0610    3.5291   -1.6567 H   0  0  0  0  0  0
   -0.4717    2.2646   -2.7672 H   0  0  0  0  0  0
    5.5627    1.9610   -2.3617 H   0  0  0  0  0  0
   -6.4736   -1.8878    0.7524 H   0  0  0  0  0  0
   -0.7211    3.5847    0.6618 H   0  0  0  0  0  0
    0.3222    2.1999    1.0141 H   0  0  0  0  0  0
   -1.3871    2.1517    1.4489 H   0  0  0  0  0  0
    0.5061   -3.4588    0.4847 H   0  0  0  0  0  0
   -0.2576   -2.0532    1.2407 H   0  0  0  0  0  0
    1.4529   -2.0046    0.8101 H   0  0  0  0  0  0
  1  2  2  0  0  0
  1 18  1  0  0  0
  1 23  1  0  0  0
  2  3  1  0  0  0
  2 19  1  0  0  0
  3  4  2  0  0  0
  3 24  1  0  0  0
  4  5  1  0  0  0
  4 25  1  0  0  0
  5  6  1  0  0  0
  5 18  2  0  0  0
  6  7  1  0  0  0
  6 15  2  0  0  0
  7  8  1  0  0  0
  7 22  1  0  0  0
  7 26  1  0  0  0
  8  9  1  0  0  0
  8 27  1  0  0  0
  8 28  1  0  0  0
  9 10  1  0  0  0
  9 14  2  0  0  0
 10 11  2  0  0  0
 10 29  1  0  0  0
 11 12  1  0  0  0
 11 20  1  0  0  0
 12 13  2  0  0  0
 12 30  1  0  0  0
 13 14  1  0  0  0
 13 31  1  0  0  0
 14 15  1  0  0  0
 15 16  1  0  0  0
 16 17  1  0  0  0
 16 21  1  0  0  0
 16 32  1  0  0  0
 17 18  1  0  0  0
 17 33  1  0  0  0
 17 34  1  0  0  0
 19 35  1  0  0  0
 20 36  1  0  0  0
 21 37  1  0  0  0
 21 38  1  0  0  0
 21 39  1  0  0  0
 22 40  1  0  0  0
 22 41  1  0  0  0
 22 42  1  0  0  0
M  END
>  <Name>
tox-246

>  <substance>
(5S ,11S )-5,11-Dimethyl-5,6,11,12- tetrahydrochrysene-2,8-diol

>  <CASRN>


>  <from_NCI>
0

>  <RBA>
9.300000

>  <method>
hERa

>  <chemical_class>
Polycyclic aromatic hydrocarbon

>  <set>
0

$$$$
tox-247
  Cerius2 12190218263D 1   1.00000                          
 Structure written by MMmdl.
 66 66  0  0  0  0  0  0  0  0999 V2000
    1.0078   -1.3410    0.5144 C   0  0  0  0  0  0
    2.3492   -1.4241    0.6846 O   0  0  0  0  0  0
    0.2935   -2.1359   -0.0754 O   0  0  0  0  0  0
    0.5200   -0.1110    1.1710 C   0  0  0  0  0  0
    2.9638   -2.5770    0.0885 C   0  0  0  0  0  0
   -0.6063   -0.1336    2.0027 C   0  0  0  0  0  0
    1.1570    1.1081    0.8911 C   0  0  0  0  0  0
    4.4753   -2.4878    0.2807 C   0  0  0  0  0  0
   -1.2513   -1.4097    2.3773 C   0  0  0  0  0  0
   -1.0892    1.0644    2.5527 C   0  0  0  0  0  0
    0.6711    2.2950    1.4423 C   0  0  0  0  0  0
    5.0789   -1.2840   -0.4488 C   0  0  0  0  0  0
   -2.5942   -1.2741    2.2600 O   0  0  0  0  0  0
   -0.6459   -2.4101    2.7279 O   0  0  0  0  0  0
   -0.4514    2.2736    2.2689 C   0  0  0  0  0  0
    6.5965   -1.2271   -0.2662 C   0  0  0  0  0  0
   -3.3508   -2.4509    2.5836 C   0  0  0  0  0  0
    7.1992   -0.0295   -1.0025 C   0  0  0  0  0  0
   -4.8384   -2.1375    2.4494 C   0  0  0  0  0  0
    8.7163    0.0318   -0.8188 C   0  0  0  0  0  0
   -5.2285   -1.7756    1.0132 C   0  0  0  0  0  0
    9.3178    1.2250   -1.5608 C   0  0  0  0  0  0
   -6.7271   -1.4884    0.9022 C   0  0  0  0  0  0
   10.8260    1.2883   -1.3824 C   0  0  0  0  0  0
   -7.1202   -1.1271   -0.5311 C   0  0  0  0  0  0
   -8.6171   -0.8322   -0.6389 C   0  0  0  0  0  0
   -9.0119   -0.4735   -2.0711 C   0  0  0  0  0  0
  -10.4995   -0.1798   -2.1811 C   0  0  0  0  0  0
    2.7187   -2.6209   -0.9792 H   0  0  0  0  0  0
    2.5851   -3.4777    0.5848 H   0  0  0  0  0  0
    2.0239    1.1439    0.2331 H   0  0  0  0  0  0
    4.9381   -3.4119   -0.0845 H   0  0  0  0  0  0
    4.6992   -2.4024    1.3511 H   0  0  0  0  0  0
   -1.9532    1.0635    3.2151 H   0  0  0  0  0  0
    1.1661    3.2397    1.2220 H   0  0  0  0  0  0
    4.6327   -0.3561   -0.0714 H   0  0  0  0  0  0
    4.8394   -1.3464   -1.5173 H   0  0  0  0  0  0
   -0.8279    3.2008    2.6985 H   0  0  0  0  0  0
    7.0474   -2.1538   -0.6413 H   0  0  0  0  0  0
    6.8353   -1.1603    0.8022 H   0  0  0  0  0  0
   -3.1344   -2.7465    3.6167 H   0  0  0  0  0  0
   -3.0694   -3.2660    1.9067 H   0  0  0  0  0  0
    6.7463    0.8971   -0.6294 H   0  0  0  0  0  0
    6.9611   -0.0982   -2.0710 H   0  0  0  0  0  0
   -5.0899   -1.2964    3.1070 H   0  0  0  0  0  0
   -5.4186   -3.0057    2.7824 H   0  0  0  0  0  0
    9.1691   -0.8965   -1.1881 H   0  0  0  0  0  0
    8.9545    0.1051    0.2494 H   0  0  0  0  0  0
   -4.9616   -2.6012    0.3423 H   0  0  0  0  0  0
   -4.6644   -0.8952    0.6829 H   0  0  0  0  0  0
    8.8725    2.1564   -1.1920 H   0  0  0  0  0  0
    9.0849    1.1550   -2.6297 H   0  0  0  0  0  0
   -6.9932   -0.6639    1.5749 H   0  0  0  0  0  0
   -7.2951   -2.3681    1.2282 H   0  0  0  0  0  0
   11.2360    2.1478   -1.9218 H   0  0  0  0  0  0
   11.3052    0.3838   -1.7704 H   0  0  0  0  0  0
   11.0921    1.3921   -0.3256 H   0  0  0  0  0  0
   -6.8588   -1.9536   -1.2030 H   0  0  0  0  0  0
   -6.5486   -0.2503   -0.8592 H   0  0  0  0  0  0
   -8.8778   -0.0047    0.0321 H   0  0  0  0  0  0
   -9.1888   -1.7081   -0.3087 H   0  0  0  0  0  0
   -8.7574   -1.2993   -2.7456 H   0  0  0  0  0  0
   -8.4465    0.4043   -2.4050 H   0  0  0  0  0  0
  -10.7614    0.0689   -3.2143 H   0  0  0  0  0  0
  -10.7801    0.6670   -1.5465 H   0  0  0  0  0  0
  -11.0943   -1.0477   -1.8791 H   0  0  0  0  0  0
  1  2  1  0  0  0
  1  3  2  0  0  0
  1  4  1  0  0  0
  2  5  1  0  0  0
  4  6  2  0  0  0
  4  7  1  0  0  0
  5  8  1  0  0  0
  5 29  1  0  0  0
  5 30  1  0  0  0
  6  9  1  0  0  0
  6 10  1  0  0  0
  7 11  2  0  0  0
  7 31  1  0  0  0
  8 12  1  0  0  0
  8 32  1  0  0  0
  8 33  1  0  0  0
  9 13  1  0  0  0
  9 14  2  0  0  0
 10 15  2  0  0  0
 10 34  1  0  0  0
 11 15  1  0  0  0
 11 35  1  0  0  0
 12 16  1  0  0  0
 12 36  1  0  0  0
 12 37  1  0  0  0
 13 17  1  0  0  0
 15 38  1  0  0  0
 16 18  1  0  0  0
 16 39  1  0  0  0
 16 40  1  0  0  0
 17 19  1  0  0  0
 17 41  1  0  0  0
 17 42  1  0  0  0
 18 20  1  0  0  0
 18 43  1  0  0  0
 18 44  1  0  0  0
 19 21  1  0  0  0
 19 45  1  0  0  0
 19 46  1  0  0  0
 20 22  1  0  0  0
 20 47  1  0  0  0
 20 48  1  0  0  0
 21 23  1  0  0  0
 21 49  1  0  0  0
 21 50  1  0  0  0
 22 24  1  0  0  0
 22 51  1  0  0  0
 22 52  1  0  0  0
 23 25  1  0  0  0
 23 53  1  0  0  0
 23 54  1  0  0  0
 24 55  1  0  0  0
 24 56  1  0  0  0
 24 57  1  0  0  0
 25 26  1  0  0  0
 25 58  1  0  0  0
 25 59  1  0  0  0
 26 27  1  0  0  0
 26 60  1  0  0  0
 26 61  1  0  0  0
 27 28  1  0  0  0
 27 62  1  0  0  0
 27 63  1  0  0  0
 28 64  1  0  0  0
 28 65  1  0  0  0
 28 66  1  0  0  0
M  END
>  <Name>
tox-247

>  <substance>
Di-n -octyl phthalate

>  <CASRN>
117-84-0

>  <from_NCI>
1

>  <RBA>
0.000000

>  <method>
RUC,RUC

>  <chemical_class>
Phthalate

>  <set>
0

$$$$
tox-248
  Cerius2 12190218263D 1   1.00000                          
 Structure written by MMmdl.
 39 40  0  0  0  0  0  0  0  0999 V2000
    2.2332    4.4855   -0.7647 O   0  0  0  0  0  0
    1.2219    3.7327   -0.8745 C   0  0  0  0  0  0
    0.0191    4.1073   -0.8631 O   0  0  0  0  0  0
    1.5211    2.2514   -1.0434 C   0  0  0  0  0  0
    0.2871    1.3365   -1.1053 C   0  0  0  0  0  0
    0.5674   -0.2087   -1.2205 C   0  0  0  0  0  0
   -0.7455   -1.0478   -1.2908 C   0  0  0  0  0  0
   -2.0243   -0.4836   -1.3473 C   0  0  0  0  0  0
   -3.1784   -1.2901   -1.4277 C   0  0  0  0  0  0
   -3.1442   -2.6952   -1.4576 C   0  0  0  0  0  0
   -4.1926   -3.4113   -1.5322 O   0  0  0  0  0  0
   -1.8501   -3.2382   -1.3974 C   0  0  0  0  0  0
   -0.6856   -2.4504   -1.3167 C   0  0  0  0  0  0
    1.4073   -0.6484    0.0064 C   0  0  0  0  0  0
    0.8768   -0.5413    1.3008 C   0  0  0  0  0  0
    1.6194   -0.9243    2.4342 C   0  0  0  0  0  0
    2.9262   -1.4365    2.3622 C   0  0  0  0  0  0
    3.5924   -1.7799    3.3899 O   0  0  0  0  0  0
    3.4322   -1.5376    1.0541 C   0  0  0  0  0  0
    2.7054   -1.1598   -0.0933 C   0  0  0  0  0  0
    1.2854   -0.4456   -2.5805 C   0  0  0  0  0  0
    2.1666    1.9599   -0.2075 H   0  0  0  0  0  0
    2.1081    2.1551   -1.9628 H   0  0  0  0  0  0
   -0.3124    1.6579   -1.9687 H   0  0  0  0  0  0
   -0.3304    1.5388   -0.2196 H   0  0  0  0  0  0
   -2.1754    0.5935   -1.3329 H   0  0  0  0  0  0
   -4.1431   -0.7750   -1.4692 H   0  0  0  0  0  0
   -1.7185   -4.3241   -1.4124 H   0  0  0  0  0  0
    0.2760   -2.9619   -1.2715 H   0  0  0  0  0  0
   -0.1329   -0.1602    1.4527 H   0  0  0  0  0  0
    1.1369   -0.8109    3.4092 H   0  0  0  0  0  0
    4.4425   -1.9276    0.8972 H   0  0  0  0  0  0
    3.1971   -1.2810   -1.0561 H   0  0  0  0  0  0
    1.5071   -1.5051   -2.7562 H   0  0  0  0  0  0
    2.2387    0.0881   -2.6490 H   0  0  0  0  0  0
    0.6610   -0.1078   -3.4170 H   0  0  0  0  0  0
   -0.0140    4.9507   -0.7631 H   0  0  0  0  0  0
   -3.9747   -4.2329   -1.5387 H   0  0  0  0  0  0
    4.3567   -2.0642    3.1501 H   0  0  0  0  0  0
  1  2  2  0  0  0
  2  3  1  0  0  0
  2  4  1  0  0  0
  3 37  1  0  0  0
  4  5  1  0  0  0
  4 22  1  0  0  0
  4 23  1  0  0  0
  5  6  1  0  0  0
  5 24  1  0  0  0
  5 25  1  0  0  0
  6  7  1  0  0  0
  6 14  1  0  0  0
  6 21  1  0  0  0
  7  8  2  0  0  0
  7 13  1  0  0  0
  8  9  1  0  0  0
  8 26  1  0  0  0
  9 10  2  0  0  0
  9 27  1  0  0  0
 10 11  1  0  0  0
 10 12  1  0  0  0
 11 38  1  0  0  0
 12 13  2  0  0  0
 12 28  1  0  0  0
 13 29  1  0  0  0
 14 15  2  0  0  0
 14 20  1  0  0  0
 15 16  1  0  0  0
 15 30  1  0  0  0
 16 17  2  0  0  0
 16 31  1  0  0  0
 17 18  1  0  0  0
 17 19  1  0  0  0
 18 39  1  0  0  0
 19 20  2  0  0  0
 19 32  1  0  0  0
 20 33  1  0  0  0
 21 34  1  0  0  0
 21 35  1  0  0  0
 21 36  1  0  0  0
M  END
>  <Name>
tox-248

>  <substance>
Diphenolic acid

>  <CASRN>
126-00-1

>  <from_NCI>
1

>  <RBA>
0.000700

>  <method>
RUC

>  <chemical_class>
Diphenolalkane

>  <set>
1

$$$$
tox-249
  Cerius2 12190218263D 1   1.00000                          
 Structure written by MMmdl.
 30 31  0  0  0  0  0  0  0  0999 V2000
   -3.0987   -0.5420    0.1394 C   0  0  0  0  0  0
   -1.8062    0.1449    0.2950 C   0  0  0  0  0  0
   -4.2552    0.2317   -0.0335 C   0  0  0  0  0  0
   -3.2301   -1.9356    0.2116 C   0  0  0  0  0  0
   -0.6219   -0.3609   -0.0856 C   0  0  0  0  0  0
   -5.5088   -0.3737   -0.1586 C   0  0  0  0  0  0
   -4.4842   -2.5412    0.0867 C   0  0  0  0  0  0
    0.6235    0.3589    0.0818 C   0  0  0  0  0  0
   -5.6224   -1.7605   -0.1010 C   0  0  0  0  0  0
    1.8081   -0.1478   -0.2965 C   0  0  0  0  0  0
    3.0993    0.5407   -0.1399 C   0  0  0  0  0  0
    3.2311    1.9331   -0.2328 C   0  0  0  0  0  0
    4.2541   -0.2302    0.0550 C   0  0  0  0  0  0
    4.4840    2.5408   -0.1069 C   0  0  0  0  0  0
    5.5065    0.3773    0.1814 C   0  0  0  0  0  0
    5.6206    1.7632    0.1029 C   0  0  0  0  0  0
   -1.8574    1.1397    0.7367 H   0  0  0  0  0  0
   -4.1917    1.3185   -0.0797 H   0  0  0  0  0  0
   -2.3620   -2.5715    0.3764 H   0  0  0  0  0  0
   -0.5629   -1.3434   -0.5517 H   0  0  0  0  0  0
   -6.3967    0.2404   -0.2993 H   0  0  0  0  0  0
   -4.5709   -3.6251    0.1417 H   0  0  0  0  0  0
    0.5646    1.3424    0.5459 H   0  0  0  0  0  0
   -6.5985   -2.2327   -0.1971 H   0  0  0  0  0  0
    1.8608   -1.1435   -0.7358 H   0  0  0  0  0  0
    2.3640    2.5657   -0.4149 H   0  0  0  0  0  0
    4.1899   -1.3161    0.1177 H   0  0  0  0  0  0
    4.5712    3.6237   -0.1784 H   0  0  0  0  0  0
    6.3932   -0.2342    0.3394 H   0  0  0  0  0  0
    6.5958    2.2370    0.1998 H   0  0  0  0  0  0
  1  2  1  0  0  0
  1  3  2  0  0  0
  1  4  1  0  0  0
  2  5  2  0  0  0
  2 17  1  0  0  0
  3  6  1  0  0  0
  3 18  1  0  0  0
  4  7  2  0  0  0
  4 19  1  0  0  0
  5  8  1  0  0  0
  5 20  1  0  0  0
  6  9  2  0  0  0
  6 21  1  0  0  0
  7  9  1  0  0  0
  7 22  1  0  0  0
  8 10  2  0  0  0
  8 23  1  0  0  0
  9 24  1  0  0  0
 10 11  1  0  0  0
 10 25  1  0  0  0
 11 12  2  0  0  0
 11 13  1  0  0  0
 12 14  1  0  0  0
 12 26  1  0  0  0
 13 15  2  0  0  0
 13 27  1  0  0  0
 14 16  2  0  0  0
 14 28  1  0  0  0
 15 16  1  0  0  0
 15 29  1  0  0  0
 16 30  1  0  0  0
M  END
>  <Name>
tox-249

>  <substance>
trans,trans -1,4-Diphenyl-1,3-butadiene

>  <CASRN>
886-65-7

>  <from_NCI>
1

>  <RBA>
0.000000

>  <method>
RUC

>  <chemical_class>
Diphenylalkene

>  <set>
1

$$$$
tox-250
  Cerius2 12190218263D 1   1.00000                          
 Structure written by MMmdl.
 48 50  0  0  0  0  0  0  0  0999 V2000
    2.6406    2.2031   -0.1348 C   0  0  0  0  0  0
    2.8127    1.3037   -1.1849 C   0  0  0  0  0  0
    2.1124    0.0963   -1.1685 C   0  0  0  0  0  0
    1.2542   -0.2107   -0.1012 C   0  0  0  0  0  0
    1.1159    0.6988    0.9590 C   0  0  0  0  0  0
    1.8136    1.9076    0.9467 C   0  0  0  0  0  0
    2.7268    4.4522   -0.7413 C   0  0  0  0  0  0
    3.6076    5.6641   -0.6716 C   0  0  0  0  0  0
    1.6161    4.4317   -1.2638 O   0  0  0  0  0  0
    3.3775    3.3881   -0.1246 O   0  0  0  0  0  0
    0.5174   -1.5003   -0.0895 C   0  0  0  0  0  0
   -0.7880   -1.5290   -0.4778 C   0  0  0  0  0  0
   -1.5804   -2.7849   -0.4741 C   0  0  0  0  0  0
   -1.5720   -0.3310   -0.9999 C   0  0  0  0  0  0
   -2.5430    0.2314    0.0318 C   0  0  0  0  0  0
    1.2199   -2.7401    0.3401 C   0  0  0  0  0  0
    1.6615   -3.6765   -0.6051 C   0  0  0  0  0  0
    2.3343   -4.8299   -0.1955 C   0  0  0  0  0  0
    2.5764   -5.0528    1.1593 C   0  0  0  0  0  0
    2.1485   -4.1231    2.1062 C   0  0  0  0  0  0
    1.4752   -2.9691    1.6990 C   0  0  0  0  0  0
   -2.0581   -3.3225    0.7290 C   0  0  0  0  0  0
   -2.8079   -4.5007    0.7284 C   0  0  0  0  0  0
   -3.0874   -5.1496   -0.4734 C   0  0  0  0  0  0
   -2.6183   -4.6221   -1.6755 C   0  0  0  0  0  0
   -1.8683   -3.4439   -1.6770 C   0  0  0  0  0  0
    3.4827    1.5334   -2.0094 H   0  0  0  0  0  0
    2.2394   -0.6047   -1.9917 H   0  0  0  0  0  0
    0.4665    0.4669    1.8015 H   0  0  0  0  0  0
    1.7101    2.6048    1.7741 H   0  0  0  0  0  0
    3.7966    5.9252    0.3726 H   0  0  0  0  0  0
    3.1039    6.5057   -1.1558 H   0  0  0  0  0  0
    4.5460    5.4708   -1.1972 H   0  0  0  0  0  0
   -2.1307   -0.6104   -1.9022 H   0  0  0  0  0  0
   -0.9058    0.4749   -1.3256 H   0  0  0  0  0  0
   -3.0418    1.1198   -0.3689 H   0  0  0  0  0  0
   -2.0259    0.5214    0.9518 H   0  0  0  0  0  0
   -3.3191   -0.4959    0.2908 H   0  0  0  0  0  0
    1.4823   -3.5131   -1.6664 H   0  0  0  0  0  0
    2.6702   -5.5542   -0.9352 H   0  0  0  0  0  0
    3.1009   -5.9520    1.4778 H   0  0  0  0  0  0
    2.3390   -4.2959    3.1638 H   0  0  0  0  0  0
    1.1467   -2.2525    2.4497 H   0  0  0  0  0  0
   -1.8500   -2.8250    1.6748 H   0  0  0  0  0  0
   -3.1738   -4.9118    1.6674 H   0  0  0  0  0  0
   -3.6714   -6.0682   -0.4730 H   0  0  0  0  0  0
   -2.8351   -5.1291   -2.6140 H   0  0  0  0  0  0
   -1.5046   -3.0471   -2.6235 H   0  0  0  0  0  0
  1  2  2  0  0  0
  1  6  1  0  0  0
  1 10  1  0  0  0
  2  3  1  0  0  0
  2 27  1  0  0  0
  3  4  2  0  0  0
  3 28  1  0  0  0
  4  5  1  0  0  0
  4 11  1  0  0  0
  5  6  2  0  0  0
  5 29  1  0  0  0
  6 30  1  0  0  0
  7  8  1  0  0  0
  7  9  2  0  0  0
  7 10  1  0  0  0
  8 31  1  0  0  0
  8 32  1  0  0  0
  8 33  1  0  0  0
 11 12  2  0  0  0
 11 16  1  0  0  0
 12 13  1  0  0  0
 12 14  1  0  0  0
 13 22  2  0  0  0
 13 26  1  0  0  0
 14 15  1  0  0  0
 14 34  1  0  0  0
 14 35  1  0  0  0
 15 36  1  0  0  0
 15 37  1  0  0  0
 15 38  1  0  0  0
 16 17  2  0  0  0
 16 21  1  0  0  0
 17 18  1  0  0  0
 17 39  1  0  0  0
 18 19  2  0  0  0
 18 40  1  0  0  0
 19 20  1  0  0  0
 19 41  1  0  0  0
 20 21  2  0  0  0
 20 42  1  0  0  0
 21 43  1  0  0  0
 22 23  1  0  0  0
 22 44  1  0  0  0
 23 24  2  0  0  0
 23 45  1  0  0  0
 24 25  1  0  0  0
 24 46  1  0  0  0
 25 26  2  0  0  0
 25 47  1  0  0  0
 26 48  1  0  0  0
M  END
>  <Name>
tox-250

>  <substance>
4-[1,2-(Diphenyl-1-butenyl)]phenol acetate

>  <CASRN>
100808-55-7

>  <from_NCI>
0

>  <RBA>
21.000000

>  <method>
RUC

>  <chemical_class>
Triphenylethylene

>  <set>
0

$$$$
tox-251
  Cerius2 12190218263D 1   1.00000                          
 Structure written by MMmdl.
 36 39  0  0  0  0  0  0  0  0999 V2000
   -1.6694    0.3039    1.4699 C   0  0  0  0  0  0
   -0.5033    0.4027    0.5399 C   0  0  0  0  0  0
   -0.2488   -0.8360    0.0506 C   0  0  0  0  0  0
   -1.2101   -1.7743    0.6420 C   0  0  0  0  0  0
   -1.3673   -3.1397    0.4595 C   0  0  0  0  0  0
   -2.3911   -3.7955    1.1558 C   0  0  0  0  0  0
   -3.2452   -3.0873    2.0190 C   0  0  0  0  0  0
   -3.0884   -1.7128    2.1964 C   0  0  0  0  0  0
   -2.0676   -1.0959    1.4944 C   0  0  0  0  0  0
   -2.1943    1.2045    2.1005 O   0  0  0  0  0  0
    0.8191   -1.1507   -0.9105 C   0  0  0  0  0  0
    0.7927   -0.6277   -2.2101 C   0  0  0  0  0  0
    1.8095   -0.9356   -3.1167 C   0  0  0  0  0  0
    2.8575   -1.7708   -2.7333 C   0  0  0  0  0  0
    2.8900   -2.3002   -1.4444 C   0  0  0  0  0  0
    1.8743   -1.9931   -0.5363 C   0  0  0  0  0  0
    0.1916    1.6618    0.2542 C   0  0  0  0  0  0
   -0.5144    2.7520   -0.2722 C   0  0  0  0  0  0
    0.1401    3.9549   -0.5487 C   0  0  0  0  0  0
    1.5050    4.0807   -0.2982 C   0  0  0  0  0  0
    2.2165    3.0056    0.2306 C   0  0  0  0  0  0
    1.5631    1.8022    0.5075 C   0  0  0  0  0  0
   -0.7184   -3.6999   -0.2084 H   0  0  0  0  0  0
   -2.5287   -4.8686    1.0258 H   0  0  0  0  0  0
   -4.0350   -3.6170    2.5500 H   0  0  0  0  0  0
   -3.7410   -1.1506    2.8563 H   0  0  0  0  0  0
   -0.0203    0.0230   -2.5289 H   0  0  0  0  0  0
    1.7825   -0.5232   -4.1238 H   0  0  0  0  0  0
    3.6498   -2.0102   -3.4406 H   0  0  0  0  0  0
    3.7077   -2.9531   -1.1444 H   0  0  0  0  0  0
    1.9178   -2.4131    0.4676 H   0  0  0  0  0  0
   -1.5814    2.6739   -0.4772 H   0  0  0  0  0  0
   -0.4174    4.7944   -0.9605 H   0  0  0  0  0  0
    2.0146    5.0182   -0.5139 H   0  0  0  0  0  0
    3.2824    3.1029    0.4292 H   0  0  0  0  0  0
    2.1374    0.9766    0.9254 H   0  0  0  0  0  0
  1  2  1  0  0  0
  1  9  1  0  0  0
  1 10  2  0  0  0
  2  3  2  0  0  0
  2 17  1  0  0  0
  3  4  1  0  0  0
  3 11  1  0  0  0
  4  5  2  0  0  0
  4  9  1  0  0  0
  5  6  1  0  0  0
  5 23  1  0  0  0
  6  7  2  0  0  0
  6 24  1  0  0  0
  7  8  1  0  0  0
  7 25  1  0  0  0
  8  9  2  0  0  0
  8 26  1  0  0  0
 11 12  2  0  0  0
 11 16  1  0  0  0
 12 13  1  0  0  0
 12 27  1  0  0  0
 13 14  2  0  0  0
 13 28  1  0  0  0
 14 15  1  0  0  0
 14 29  1  0  0  0
 15 16  2  0  0  0
 15 30  1  0  0  0
 16 31  1  0  0  0
 17 18  2  0  0  0
 17 22  1  0  0  0
 18 19  1  0  0  0
 18 32  1  0  0  0
 19 20  2  0  0  0
 19 33  1  0  0  0
 20 21  1  0  0  0
 20 34  1  0  0  0
 21 22  2  0  0  0
 21 35  1  0  0  0
 22 36  1  0  0  0
M  END
>  <Name>
tox-251

>  <substance>
2,3-Diphenylindenone-1

>  <CASRN>


>  <from_NCI>
0

>  <RBA>
0.010000

>  <method>
RUC

>  <chemical_class>
Indene

>  <set>
1

$$$$
tox-252
  Cerius2 12190218263D 1   1.00000                          
 Structure written by MMmdl.
 48 50  0  0  0  0  0  0  0  0999 V2000
   -3.1335    0.1921    0.4250 C   0  0  0  0  0  0
   -2.6113   -0.1399    1.6729 C   0  0  0  0  0  0
   -1.3360   -0.7028    1.7493 C   0  0  0  0  0  0
   -0.5943   -0.9431    0.5822 C   0  0  0  0  0  0
   -1.1496   -0.6191   -0.6657 C   0  0  0  0  0  0
   -2.4244   -0.0566   -0.7478 C   0  0  0  0  0  0
    0.7600   -1.5450    0.6680 C   0  0  0  0  0  0
    0.7333   -3.0362    0.9797 C   0  0  0  0  0  0
    0.3915   -3.8870   -0.2379 C   0  0  0  0  0  0
    1.8884   -0.7960    0.5226 C   0  0  0  0  0  0
    1.8099    0.6711    0.2867 C   0  0  0  0  0  0
    2.0197    1.1903   -0.9981 C   0  0  0  0  0  0
    1.9612    2.5679   -1.2205 C   0  0  0  0  0  0
    1.6985    3.4358   -0.1612 C   0  0  0  0  0  0
    1.4955    2.9289    1.1217 C   0  0  0  0  0  0
    1.5536    1.5518    1.3467 C   0  0  0  0  0  0
    3.2174   -1.4528    0.6065 C   0  0  0  0  0  0
    3.7595   -2.1100   -0.5062 C   0  0  0  0  0  0
    5.0109   -2.7235   -0.4212 C   0  0  0  0  0  0
    5.7296   -2.6809    0.7729 C   0  0  0  0  0  0
    5.1998   -2.0243    1.8832 C   0  0  0  0  0  0
    3.9485   -1.4098    1.8011 C   0  0  0  0  0  0
   -4.4864    2.0922    0.3691 C   0  0  0  0  0  0
   -5.9208    2.5193    0.2714 C   0  0  0  0  0  0
   -3.5378    2.8661    0.4592 O   0  0  0  0  0  0
   -4.4298    0.7022    0.3431 O   0  0  0  0  0  0
   -3.1847    0.0348    2.5796 H   0  0  0  0  0  0
   -0.9226   -0.9518    2.7251 H   0  0  0  0  0  0
   -0.5920   -0.8095   -1.5812 H   0  0  0  0  0  0
   -2.8531    0.1810   -1.7179 H   0  0  0  0  0  0
    0.0063   -3.2412    1.7757 H   0  0  0  0  0  0
    1.6913   -3.3794    1.3845 H   0  0  0  0  0  0
    0.4378   -4.9494    0.0227 H   0  0  0  0  0  0
    1.0932   -3.7108   -1.0593 H   0  0  0  0  0  0
   -0.6199   -3.6793   -0.6018 H   0  0  0  0  0  0
    2.2254    0.5247   -1.8346 H   0  0  0  0  0  0
    2.1211    2.9637   -2.2217 H   0  0  0  0  0  0
    1.6535    4.5092   -0.3358 H   0  0  0  0  0  0
    1.2923    3.6062    1.9491 H   0  0  0  0  0  0
    1.3964    1.1694    2.3538 H   0  0  0  0  0  0
    3.2098   -2.1478   -1.4451 H   0  0  0  0  0  0
    5.4257   -3.2341   -1.2884 H   0  0  0  0  0  0
    6.7054   -3.1592    0.8381 H   0  0  0  0  0  0
    5.7618   -1.9902    2.8147 H   0  0  0  0  0  0
    3.5463   -0.9006    2.6753 H   0  0  0  0  0  0
   -6.3553    2.1487   -0.6603 H   0  0  0  0  0  0
   -5.9737    3.6118    0.2690 H   0  0  0  0  0  0
   -6.4782    2.1445    1.1333 H   0  0  0  0  0  0
  1  2  2  0  0  0
  1  6  1  0  0  0
  1 26  1  0  0  0
  2  3  1  0  0  0
  2 27  1  0  0  0
  3  4  2  0  0  0
  3 28  1  0  0  0
  4  5  1  0  0  0
  4  7  1  0  0  0
  5  6  2  0  0  0
  5 29  1  0  0  0
  6 30  1  0  0  0
  7  8  1  0  0  0
  7 10  2  0  0  0
  8  9  1  0  0  0
  8 31  1  0  0  0
  8 32  1  0  0  0
  9 33  1  0  0  0
  9 34  1  0  0  0
  9 35  1  0  0  0
 10 11  1  0  0  0
 10 17  1  0  0  0
 11 12  2  0  0  0
 11 16  1  0  0  0
 12 13  1  0  0  0
 12 36  1  0  0  0
 13 14  2  0  0  0
 13 37  1  0  0  0
 14 15  1  0  0  0
 14 38  1  0  0  0
 15 16  2  0  0  0
 15 39  1  0  0  0
 16 40  1  0  0  0
 17 18  2  0  0  0
 17 22  1  0  0  0
 18 19  1  0  0  0
 18 41  1  0  0  0
 19 20  2  0  0  0
 19 42  1  0  0  0
 20 21  1  0  0  0
 20 43  1  0  0  0
 21 22  2  0  0  0
 21 44  1  0  0  0
 22 45  1  0  0  0
 23 24  1  0  0  0
 23 25  2  0  0  0
 23 26  1  0  0  0
 24 46  1  0  0  0
 24 47  1  0  0  0
 24 48  1  0  0  0
M  END
>  <Name>
tox-252

>  <substance>
4-[1- (Diphenylmethylene)propyl]phenol acetate

>  <CASRN>
82333-68-4

>  <from_NCI>
0

>  <RBA>
2.000000

>  <method>
RUC

>  <chemical_class>
Triphenylethylene

>  <set>
0

$$$$
tox-253
  Cerius2 12190218263D 1   1.00000                          
 Structure written by MMmdl.
 41 42  0  0  0  0  0  0  0  0999 V2000
    1.0451    3.0791    0.0148 Si  0  0  0  0  0  0
   -0.8747    3.0552   -0.0541 C   0  0  0  0  0  0
    1.5132    1.4659   -0.0680 O   0  0  0  0  0  0
    1.7148    4.0689   -1.4276 C   0  0  0  0  0  0
    1.5604    3.8668    1.6356 C   0  0  0  0  0  0
   -1.5896    4.2177   -0.3937 C   0  0  0  0  0  0
   -1.5964    1.8880    0.2520 C   0  0  0  0  0  0
    2.9347    0.5736   -0.1861 Si  0  0  0  0  0  0
   -2.9863    4.2093   -0.4290 C   0  0  0  0  0  0
   -2.9934    1.8864    0.2156 C   0  0  0  0  0  0
    2.3767   -1.2473    0.0601 C   0  0  0  0  0  0
    3.7452    0.7950   -1.8582 C   0  0  0  0  0  0
    4.1492    1.0017    1.1752 C   0  0  0  0  0  0
   -3.6875    3.0448   -0.1250 C   0  0  0  0  0  0
    2.9272   -2.2889   -0.7067 C   0  0  0  0  0  0
    1.4124   -1.5668    1.0341 C   0  0  0  0  0  0
    2.5199   -3.6105   -0.5060 C   0  0  0  0  0  0
    1.0094   -2.8899    1.2304 C   0  0  0  0  0  0
    1.5628   -3.9108    0.4608 C   0  0  0  0  0  0
    2.8085    4.0923   -1.4065 H   0  0  0  0  0  0
    1.3574    5.1020   -1.3926 H   0  0  0  0  0  0
    1.4023    3.6303   -2.3803 H   0  0  0  0  0  0
    2.6504    3.8985    1.7243 H   0  0  0  0  0  0
    1.1653    3.2991    2.4834 H   0  0  0  0  0  0
    1.1845    4.8919    1.7059 H   0  0  0  0  0  0
   -1.0713    5.1467   -0.6314 H   0  0  0  0  0  0
   -1.0803    0.9668    0.5247 H   0  0  0  0  0  0
   -3.5276    5.1164   -0.6924 H   0  0  0  0  0  0
   -3.5403    0.9767    0.4558 H   0  0  0  0  0  0
    4.6508    0.1861   -1.9375 H   0  0  0  0  0  0
    4.0307    1.8393   -2.0149 H   0  0  0  0  0  0
    3.0645    0.5051   -2.6641 H   0  0  0  0  0  0
    5.0266    0.3497    1.1299 H   0  0  0  0  0  0
    3.6857    0.8840    2.1591 H   0  0  0  0  0  0
    4.4911    2.0366    1.0804 H   0  0  0  0  0  0
   -4.7759    3.0416   -0.1508 H   0  0  0  0  0  0
    3.6808   -2.0910   -1.4681 H   0  0  0  0  0  0
    0.9648   -0.7871    1.6522 H   0  0  0  0  0  0
    2.9543   -4.4090   -1.1061 H   0  0  0  0  0  0
    0.2630   -3.1234    1.9875 H   0  0  0  0  0  0
    1.2491   -4.9414    0.6160 H   0  0  0  0  0  0
  1  2  1  0  0  0
  1  3  1  0  0  0
  1  4  1  0  0  0
  1  5  1  0  0  0
  2  6  2  0  0  0
  2  7  1  0  0  0
  3  8  1  0  0  0
  4 20  1  0  0  0
  4 21  1  0  0  0
  4 22  1  0  0  0
  5 23  1  0  0  0
  5 24  1  0  0  0
  5 25  1  0  0  0
  6  9  1  0  0  0
  6 26  1  0  0  0
  7 10  2  0  0  0
  7 27  1  0  0  0
  8 11  1  0  0  0
  8 12  1  0  0  0
  8 13  1  0  0  0
  9 14  2  0  0  0
  9 28  1  0  0  0
 10 14  1  0  0  0
 10 29  1  0  0  0
 11 15  2  0  0  0
 11 16  1  0  0  0
 12 30  1  0  0  0
 12 31  1  0  0  0
 12 32  1  0  0  0
 13 33  1  0  0  0
 13 34  1  0  0  0
 13 35  1  0  0  0
 14 36  1  0  0  0
 15 17  1  0  0  0
 15 37  1  0  0  0
 16 18  2  0  0  0
 16 38  1  0  0  0
 17 19  2  0  0  0
 17 39  1  0  0  0
 18 19  1  0  0  0
 18 40  1  0  0  0
 19 41  1  0  0  0
M  END
>  <Name>
tox-253

>  <substance>
1,3-Diphenyltetramethyldisiloxane

>  <CASRN>
56-33-7

>  <from_NCI>
1

>  <RBA>
0.000700

>  <method>
RUC

>  <chemical_class>
Siloxane

>  <set>
2

$$$$
tox-254
  Cerius2 12190218263D 1   1.00000                          
 Structure written by MMmdl.
 54 57  0  0  0  0  0  0  0  0999 V2000
    2.8693    2.7383   -1.7110 C   0  0  0  0  0  0
    4.1168    2.2320   -1.3747 C   0  0  0  0  0  0
    4.2572    0.9112   -0.9733 C   0  0  0  0  0  0
    3.1305    0.0824   -0.9120 C   0  0  0  0  0  0
    1.8531    0.5629   -1.2421 C   0  0  0  0  0  0
    0.6304   -0.2915   -1.2156 C   0  0  0  0  0  0
    0.7827   -1.8109   -1.2124 C   0  0  0  0  0  0
   -0.3472   -2.4483   -2.0443 C   0  0  0  0  0  0
   -1.7000   -1.9097   -1.6532 C   0  0  0  0  0  0
   -2.8320   -2.7353   -1.7383 C   0  0  0  0  0  0
   -4.0816   -2.2301   -1.4079 C   0  0  0  0  0  0
   -4.2244   -0.9108   -1.0024 C   0  0  0  0  0  0
   -3.0981   -0.0823   -0.9312 C   0  0  0  0  0  0
   -1.8187   -0.5615   -1.2552 C   0  0  0  0  0  0
   -0.5962    0.2928   -1.2183 C   0  0  0  0  0  0
   -0.7485    1.8122   -1.2110 C   0  0  0  0  0  0
    0.3864    2.4524   -2.0338 C   0  0  0  0  0  0
    1.7369    1.9125   -1.6361 C   0  0  0  0  0  0
    5.1917    3.0666   -1.4536 O   0  0  0  0  0  0
   -5.1559   -3.0644   -1.4967 O   0  0  0  0  0  0
   -0.8087    2.3398    0.2452 C   0  0  0  0  0  0
   -1.2344    3.8081    0.3383 C   0  0  0  0  0  0
   -1.3968    4.2464    1.7861 C   0  0  0  0  0  0
    0.8340   -2.3434    0.2424 C   0  0  0  0  0  0
    1.2591   -3.8120    0.3332 C   0  0  0  0  0  0
    1.4124   -4.2552    1.7805 C   0  0  0  0  0  0
    2.7752    3.7740   -2.0312 H   0  0  0  0  0  0
    5.2299    0.5040   -0.7073 H   0  0  0  0  0  0
    3.2838   -0.9457   -0.5925 H   0  0  0  0  0  0
    1.7148   -2.0907   -1.7199 H   0  0  0  0  0  0
   -0.3251   -3.5393   -1.9569 H   0  0  0  0  0  0
   -0.1936   -2.2183   -3.1076 H   0  0  0  0  0  0
   -2.7359   -3.7697   -2.0617 H   0  0  0  0  0  0
   -5.1988   -0.5046   -0.7410 H   0  0  0  0  0  0
   -3.2533    0.9447   -0.6088 H   0  0  0  0  0  0
   -1.6775    2.0937   -1.7232 H   0  0  0  0  0  0
    0.3638    3.5431   -1.9429 H   0  0  0  0  0  0
    0.2395    2.2259   -3.0988 H   0  0  0  0  0  0
    5.9925    2.5657   -1.1882 H   0  0  0  0  0  0
   -5.9583   -2.5645   -1.2342 H   0  0  0  0  0  0
    0.1630    2.2151    0.7397 H   0  0  0  0  0  0
   -1.5197    1.7382    0.8255 H   0  0  0  0  0  0
   -2.1843    3.9546   -0.1884 H   0  0  0  0  0  0
   -0.4918    4.4554   -0.1386 H   0  0  0  0  0  0
   -1.6973    5.2978    1.8322 H   0  0  0  0  0  0
   -0.4568    4.1369    2.3365 H   0  0  0  0  0  0
   -2.1638    3.6520    2.2929 H   0  0  0  0  0  0
   -0.1407   -2.2202    0.7314 H   0  0  0  0  0  0
    1.5415   -1.7438    0.8289 H   0  0  0  0  0  0
    2.2123   -3.9567   -0.1881 H   0  0  0  0  0  0
    0.5194   -4.4576   -0.1506 H   0  0  0  0  0  0
    1.7126   -5.3068    1.8248 H   0  0  0  0  0  0
    0.4690   -4.1476    2.3253 H   0  0  0  0  0  0
    2.1762   -3.6626    2.2940 H   0  0  0  0  0  0
  1  2  2  0  0  0
  1 18  1  0  0  0
  1 27  1  0  0  0
  2  3  1  0  0  0
  2 19  1  0  0  0
  3  4  2  0  0  0
  3 28  1  0  0  0
  4  5  1  0  0  0
  4 29  1  0  0  0
  5  6  1  0  0  0
  5 18  2  0  0  0
  6  7  1  0  0  0
  6 15  2  0  0  0
  7  8  1  0  0  0
  7 24  1  0  0  0
  7 30  1  0  0  0
  8  9  1  0  0  0
  8 31  1  0  0  0
  8 32  1  0  0  0
  9 10  1  0  0  0
  9 14  2  0  0  0
 10 11  2  0  0  0
 10 33  1  0  0  0
 11 12  1  0  0  0
 11 20  1  0  0  0
 12 13  2  0  0  0
 12 34  1  0  0  0
 13 14  1  0  0  0
 13 35  1  0  0  0
 14 15  1  0  0  0
 15 16  1  0  0  0
 16 17  1  0  0  0
 16 21  1  0  0  0
 16 36  1  0  0  0
 17 18  1  0  0  0
 17 37  1  0  0  0
 17 38  1  0  0  0
 19 39  1  0  0  0
 20 40  1  0  0  0
 21 22  1  0  0  0
 21 41  1  0  0  0
 21 42  1  0  0  0
 22 23  1  0  0  0
 22 43  1  0  0  0
 22 44  1  0  0  0
 23 45  1  0  0  0
 23 46  1  0  0  0
 23 47  1  0  0  0
 24 25  1  0  0  0
 24 48  1  0  0  0
 24 49  1  0  0  0
 25 26  1  0  0  0
 25 50  1  0  0  0
 25 51  1  0  0  0
 26 52  1  0  0  0
 26 53  1  0  0  0
 26 54  1  0  0  0
M  END
>  <Name>
tox-254

>  <substance>
5,11-trans -Dipropyl-5,6,11,12- tetrahydrochrysene-2,8-diol

>  <CASRN>


>  <from_NCI>
0

>  <RBA>
34.000000

>  <method>
hERa

>  <chemical_class>
Polycyclic aromatic hydrocarbon

>  <set>
1

$$$$
tox-255
  Cerius2 12190218263D 1   1.00000                          
 Structure written by MMmdl.
 54 57  0  0  0  0  0  0  0  0999 V2000
    2.7423    2.3502   -0.5175 C   0  0  0  0  0  0
    3.8961    1.6623   -0.1700 C   0  0  0  0  0  0
    3.8325    0.3290    0.2041 C   0  0  0  0  0  0
    2.5956   -0.3257    0.2111 C   0  0  0  0  0  0
    1.4127    0.3330   -0.1697 C   0  0  0  0  0  0
    0.0823   -0.3415   -0.1489 C   0  0  0  0  0  0
    0.0066   -1.8727   -0.2462 C   0  0  0  0  0  0
   -1.4538   -2.3832   -0.3100 C   0  0  0  0  0  0
   -2.3936   -1.6008    0.5585 C   0  0  0  0  0  0
   -3.4970   -2.2399    1.1487 C   0  0  0  0  0  0
   -4.3654   -1.5201    1.9570 C   0  0  0  0  0  0
   -4.1516   -0.1704    2.1897 C   0  0  0  0  0  0
   -3.0615    0.4676    1.5869 C   0  0  0  0  0  0
   -2.1834   -0.2248    0.7341 C   0  0  0  0  0  0
   -1.0049    0.4327    0.0986 C   0  0  0  0  0  0
   -1.0028    1.9558   -0.1017 C   0  0  0  0  0  0
    0.2534    2.4436   -0.8642 C   0  0  0  0  0  0
    1.4994    1.6953   -0.4934 C   0  0  0  0  0  0
    5.0802    2.3362   -0.1973 O   0  0  0  0  0  0
   -5.4183   -2.1790    2.5177 O   0  0  0  0  0  0
   -2.2509    2.4461   -0.8953 C   0  0  0  0  0  0
   -2.3740    3.9735   -0.9517 C   0  0  0  0  0  0
   -3.6681    4.4005   -1.6283 C   0  0  0  0  0  0
    0.7482   -2.4194   -1.5028 C   0  0  0  0  0  0
    0.8501   -3.9491   -1.5309 C   0  0  0  0  0  0
    1.6871   -4.4272   -2.7081 C   0  0  0  0  0  0
    2.8050    3.3997   -0.7991 H   0  0  0  0  0  0
    4.7253   -0.2184    0.4968 H   0  0  0  0  0  0
    2.5800   -1.3646    0.5349 H   0  0  0  0  0  0
    0.4690   -2.2869    0.6603 H   0  0  0  0  0  0
   -1.4726   -3.4378   -0.0081 H   0  0  0  0  0  0
   -1.8399   -2.3328   -1.3369 H   0  0  0  0  0  0
   -3.6706   -3.3014    0.9829 H   0  0  0  0  0  0
   -4.8124    0.4028    2.8355 H   0  0  0  0  0  0
   -2.9099    1.5215    1.8125 H   0  0  0  0  0  0
   -0.9955    2.4221    0.8930 H   0  0  0  0  0  0
    0.3970    3.5121   -0.6609 H   0  0  0  0  0  0
    0.1179    2.3349   -1.9486 H   0  0  0  0  0  0
    5.7937    1.7191    0.0725 H   0  0  0  0  0  0
   -5.9325   -1.5395    3.0555 H   0  0  0  0  0  0
   -3.1750    2.0567   -0.4593 H   0  0  0  0  0  0
   -2.2166    2.0466   -1.9180 H   0  0  0  0  0  0
   -1.5351    4.4076   -1.5054 H   0  0  0  0  0  0
   -2.3473    4.3856    0.0635 H   0  0  0  0  0  0
   -3.7345    5.4924   -1.6640 H   0  0  0  0  0  0
   -4.5396    4.0257   -1.0820 H   0  0  0  0  0  0
   -3.7167    4.0230   -2.6547 H   0  0  0  0  0  0
    1.7640   -2.0198   -1.5678 H   0  0  0  0  0  0
    0.2369   -2.0728   -2.4112 H   0  0  0  0  0  0
   -0.1445   -4.4003   -1.6083 H   0  0  0  0  0  0
    1.3031   -4.3079   -0.5997 H   0  0  0  0  0  0
    1.7427   -5.5203   -2.7142 H   0  0  0  0  0  0
    2.7079   -4.0363   -2.6491 H   0  0  0  0  0  0
    1.2488   -4.1036   -3.6576 H   0  0  0  0  0  0
  1  2  2  0  0  0
  1 18  1  0  0  0
  1 27  1  0  0  0
  2  3  1  0  0  0
  2 19  1  0  0  0
  3  4  2  0  0  0
  3 28  1  0  0  0
  4  5  1  0  0  0
  4 29  1  0  0  0
  5  6  1  0  0  0
  5 18  2  0  0  0
  6  7  1  0  0  0
  6 15  2  0  0  0
  7  8  1  0  0  0
  7 24  1  0  0  0
  7 30  1  0  0  0
  8  9  1  0  0  0
  8 31  1  0  0  0
  8 32  1  0  0  0
  9 10  1  0  0  0
  9 14  2  0  0  0
 10 11  2  0  0  0
 10 33  1  0  0  0
 11 12  1  0  0  0
 11 20  1  0  0  0
 12 13  2  0  0  0
 12 34  1  0  0  0
 13 14  1  0  0  0
 13 35  1  0  0  0
 14 15  1  0  0  0
 15 16  1  0  0  0
 16 17  1  0  0  0
 16 21  1  0  0  0
 16 36  1  0  0  0
 17 18  1  0  0  0
 17 37  1  0  0  0
 17 38  1  0  0  0
 19 39  1  0  0  0
 20 40  1  0  0  0
 21 22  1  0  0  0
 21 41  1  0  0  0
 21 42  1  0  0  0
 22 23  1  0  0  0
 22 43  1  0  0  0
 22 44  1  0  0  0
 23 45  1  0  0  0
 23 46  1  0  0  0
 23 47  1  0  0  0
 24 25  1  0  0  0
 24 48  1  0  0  0
 24 49  1  0  0  0
 25 26  1  0  0  0
 25 50  1  0  0  0
 25 51  1  0  0  0
 26 52  1  0  0  0
 26 53  1  0  0  0
 26 54  1  0  0  0
M  END
>  <Name>
tox-255

>  <substance>
(5R ,11R )-5,11-Dipropyl-5,6,11,12- tetrahydrochrysene-2,8-diol

>  <CASRN>


>  <from_NCI>
0

>  <RBA>
5.200000

>  <method>
hERa

>  <chemical_class>
Polycyclic aromatic hydrocarbon

>  <set>
0

$$$$
tox-256
  Cerius2 12190218263D 1   1.00000                          
 Structure written by MMmdl.
 54 57  0  0  0  0  0  0  0  0999 V2000
    2.2624    2.5402   -2.3363 C   0  0  0  0  0  0
    3.5250    1.9702   -2.2536 C   0  0  0  0  0  0
    3.6800    0.6576   -1.8314 C   0  0  0  0  0  0
    2.5518   -0.0984   -1.4908 C   0  0  0  0  0  0
    1.2601    0.4479   -1.5597 C   0  0  0  0  0  0
    0.0295   -0.3286   -1.2306 C   0  0  0  0  0  0
    0.0992   -1.8534   -1.1900 C   0  0  0  0  0  0
   -1.2171   -2.4491   -1.7259 C   0  0  0  0  0  0
   -2.4217   -1.8152   -1.0774 C   0  0  0  0  0  0
   -3.5865   -2.5721   -0.8768 C   0  0  0  0  0  0
   -4.7056   -1.9800   -0.3084 C   0  0  0  0  0  0
   -4.6871   -0.6411    0.0556 C   0  0  0  0  0  0
   -3.5306    0.1186   -0.1574 C   0  0  0  0  0  0
   -2.3797   -0.4493   -0.7273 C   0  0  0  0  0  0
   -1.1357    0.3292   -0.9956 C   0  0  0  0  0  0
   -1.2030    1.8544   -1.0262 C   0  0  0  0  0  0
   -0.2426    2.3959   -2.1030 C   0  0  0  0  0  0
    1.1318    1.7881   -1.9812 C   0  0  0  0  0  0
    4.5990    2.7345   -2.6004 O   0  0  0  0  0  0
   -5.8156   -2.7493   -0.1234 O   0  0  0  0  0  0
   -0.9169    2.4341    0.3826 C   0  0  0  0  0  0
   -1.2365    3.9276    0.4970 C   0  0  0  0  0  0
   -1.0555    4.4242    1.9237 C   0  0  0  0  0  0
    0.4407   -2.3385    0.2420 C   0  0  0  0  0  0
    0.8021   -3.8256    0.3053 C   0  0  0  0  0  0
    1.2475   -4.2275    1.7034 C   0  0  0  0  0  0
    2.1552    3.5684   -2.6760 H   0  0  0  0  0  0
    4.6647    0.2009   -1.7627 H   0  0  0  0  0  0
    2.7171   -1.1226   -1.1648 H   0  0  0  0  0  0
    0.8814   -2.2064   -1.8743 H   0  0  0  0  0  0
   -1.2335   -3.5357   -1.5933 H   0  0  0  0  0  0
   -1.2883   -2.2666   -2.8070 H   0  0  0  0  0  0
   -3.6178   -3.6211   -1.1641 H   0  0  0  0  0  0
   -5.5582   -0.1670    0.5020 H   0  0  0  0  0  0
   -3.5577    1.1637    0.1421 H   0  0  0  0  0  0
   -2.2053    2.1746   -1.3388 H   0  0  0  0  0  0
   -0.1877    3.4884   -2.0598 H   0  0  0  0  0  0
   -0.6297    2.1429   -3.0996 H   0  0  0  0  0  0
    5.4111    2.1951   -2.4902 H   0  0  0  0  0  0
   -6.5141   -2.1921    0.2820 H   0  0  0  0  0  0
    0.1316    2.2681    0.6608 H   0  0  0  0  0  0
   -1.5140    1.8966    1.1300 H   0  0  0  0  0  0
   -2.2699    4.1125    0.1822 H   0  0  0  0  0  0
   -0.5841    4.5124   -0.1590 H   0  0  0  0  0  0
   -1.2843    5.4927    1.9847 H   0  0  0  0  0  0
   -0.0249    4.2771    2.2620 H   0  0  0  0  0  0
   -1.7226    3.8947    2.6115 H   0  0  0  0  0  0
   -0.3962   -2.1423    0.9242 H   0  0  0  0  0  0
    1.2882   -1.7619    0.6338 H   0  0  0  0  0  0
    1.6091   -4.0432   -0.4036 H   0  0  0  0  0  0
   -0.0568   -4.4429    0.0240 H   0  0  0  0  0  0
    1.4976   -5.2927    1.7296 H   0  0  0  0  0  0
    0.4535   -4.0465    2.4348 H   0  0  0  0  0  0
    2.1339   -3.6634    2.0107 H   0  0  0  0  0  0
  1  2  2  0  0  0
  1 18  1  0  0  0
  1 27  1  0  0  0
  2  3  1  0  0  0
  2 19  1  0  0  0
  3  4  2  0  0  0
  3 28  1  0  0  0
  4  5  1  0  0  0
  4 29  1  0  0  0
  5  6  1  0  0  0
  5 18  2  0  0  0
  6  7  1  0  0  0
  6 15  2  0  0  0
  7  8  1  0  0  0
  7 24  1  0  0  0
  7 30  1  0  0  0
  8  9  1  0  0  0
  8 31  1  0  0  0
  8 32  1  0  0  0
  9 10  1  0  0  0
  9 14  2  0  0  0
 10 11  2  0  0  0
 10 33  1  0  0  0
 11 12  1  0  0  0
 11 20  1  0  0  0
 12 13  2  0  0  0
 12 34  1  0  0  0
 13 14  1  0  0  0
 13 35  1  0  0  0
 14 15  1  0  0  0
 15 16  1  0  0  0
 16 17  1  0  0  0
 16 21  1  0  0  0
 16 36  1  0  0  0
 17 18  1  0  0  0
 17 37  1  0  0  0
 17 38  1  0  0  0
 19 39  1  0  0  0
 20 40  1  0  0  0
 21 22  1  0  0  0
 21 41  1  0  0  0
 21 42  1  0  0  0
 22 23  1  0  0  0
 22 43  1  0  0  0
 22 44  1  0  0  0
 23 45  1  0  0  0
 23 46  1  0  0  0
 23 47  1  0  0  0
 24 25  1  0  0  0
 24 48  1  0  0  0
 24 49  1  0  0  0
 25 26  1  0  0  0
 25 50  1  0  0  0
 25 51  1  0  0  0
 26 52  1  0  0  0
 26 53  1  0  0  0
 26 54  1  0  0  0
M  END
>  <Name>
tox-256

>  <substance>
(5S ,11S )-5,11-Dipropyl-5,6,11,12- tetrahydrochrysene-2,8-diol

>  <CASRN>


>  <from_NCI>
0

>  <RBA>
1.600000

>  <method>
hERa

>  <chemical_class>
Polycyclic aromatic hydrocarbon

>  <set>
0

$$$$
tox-257
  Cerius2 12190218263D 1   1.00000                          
 Structure written by MMmdl.
 49 49  0  0  0  0  0  0  0  0999 V2000
  -10.0737   -0.9327    0.0934 O   0  0  0  0  0  0
   -8.8949   -0.4561    0.0864 C   0  0  0  0  0  0
   -7.7437   -1.2656    0.0863 C   0  0  0  0  0  0
   -6.4329   -0.7507    0.0786 C   0  0  0  0  0  0
   -6.2070    0.6244    0.0700 C   0  0  0  0  0  0
   -7.3288    1.4581    0.0703 C   0  0  0  0  0  0
   -8.6301    0.9248    0.0782 C   0  0  0  0  0  0
   -4.8346    1.2614    0.0620 C   0  0  0  0  0  0
   -3.6303    0.3124    0.0489 C   0  0  0  0  0  0
   -2.3117    1.0903    0.0379 C   0  0  0  0  0  0
   -1.1084    0.1461    0.0254 C   0  0  0  0  0  0
    0.2083    0.9242    0.0154 C   0  0  0  0  0  0
    1.4123   -0.0190    0.0032 C   0  0  0  0  0  0
    2.7282    0.7603   -0.0074 C   0  0  0  0  0  0
    3.9330   -0.1816   -0.0198 C   0  0  0  0  0  0
    5.2482    0.5991   -0.0327 C   0  0  0  0  0  0
    6.4538   -0.3417   -0.0457 C   0  0  0  0  0  0
    7.7674    0.4394   -0.0597 C   0  0  0  0  0  0
    8.9689   -0.4917   -0.0726 C   0  0  0  0  0  0
   -7.8515   -2.3545    0.0926 H   0  0  0  0  0  0
   -5.6082   -1.4607    0.0794 H   0  0  0  0  0  0
   -7.2071    2.5415    0.0644 H   0  0  0  0  0  0
   -9.4623    1.6349    0.0778 H   0  0  0  0  0  0
   -4.7604    1.9055    0.9480 H   0  0  0  0  0  0
   -4.7737    1.9121   -0.8202 H   0  0  0  0  0  0
   -3.6754   -0.3352   -0.8355 H   0  0  0  0  0  0
   -3.6585   -0.3381    0.9318 H   0  0  0  0  0  0
   -2.2605    1.7387    0.9211 H   0  0  0  0  0  0
   -2.2767    1.7413   -0.8441 H   0  0  0  0  0  0
   -1.1590   -0.5018   -0.8581 H   0  0  0  0  0  0
   -1.1435   -0.5055    0.9069 H   0  0  0  0  0  0
    0.2586    1.5725    0.8987 H   0  0  0  0  0  0
    0.2432    1.5757   -0.8663 H   0  0  0  0  0  0
    1.3621   -0.6676   -0.8798 H   0  0  0  0  0  0
    1.3779   -0.6701    0.8852 H   0  0  0  0  0  0
    2.7781    1.4089    0.8757 H   0  0  0  0  0  0
    2.7621    1.4117   -0.8893 H   0  0  0  0  0  0
    3.8827   -0.8311   -0.9022 H   0  0  0  0  0  0
    3.9002   -0.8319    0.8628 H   0  0  0  0  0  0
    5.2985    1.2485    0.8498 H   0  0  0  0  0  0
    5.2804    1.2496   -0.9152 H   0  0  0  0  0  0
    6.4034   -0.9917   -0.9278 H   0  0  0  0  0  0
    6.4223   -0.9920    0.8370 H   0  0  0  0  0  0
    7.8246    1.0880    0.8222 H   0  0  0  0  0  0
    7.8057    1.0881   -0.9426 H   0  0  0  0  0  0
    9.8973    0.0878   -0.0826 H   0  0  0  0  0  0
    8.9590   -1.1328   -0.9600 H   0  0  0  0  0  0
    8.9781   -1.1328    0.8146 H   0  0  0  0  0  0
  -10.6368   -0.2960    0.0922 H   0  0  0  0  0  0
  1  2  1  0  0  0
  1 49  1  0  0  0
  2  3  2  0  0  0
  2  7  1  0  0  0
  3  4  1  0  0  0
  3 20  1  0  0  0
  4  5  2  0  0  0
  4 21  1  0  0  0
  5  6  1  0  0  0
  5  8  1  0  0  0
  6  7  2  0  0  0
  6 22  1  0  0  0
  7 23  1  0  0  0
  8  9  1  0  0  0
  8 24  1  0  0  0
  8 25  1  0  0  0
  9 10  1  0  0  0
  9 26  1  0  0  0
  9 27  1  0  0  0
 10 11  1  0  0  0
 10 28  1  0  0  0
 10 29  1  0  0  0
 11 12  1  0  0  0
 11 30  1  0  0  0
 11 31  1  0  0  0
 12 13  1  0  0  0
 12 32  1  0  0  0
 12 33  1  0  0  0
 13 14  1  0  0  0
 13 34  1  0  0  0
 13 35  1  0  0  0
 14 15  1  0  0  0
 14 36  1  0  0  0
 14 37  1  0  0  0
 15 16  1  0  0  0
 15 38  1  0  0  0
 15 39  1  0  0  0
 16 17  1  0  0  0
 16 40  1  0  0  0
 16 41  1  0  0  0
 17 18  1  0  0  0
 17 42  1  0  0  0
 17 43  1  0  0  0
 18 19  1  0  0  0
 18 44  1  0  0  0
 18 45  1  0  0  0
 19 46  1  0  0  0
 19 47  1  0  0  0
 19 48  1  0  0  0
M  END
>  <Name>
tox-257

>  <substance>
4-Dodecylphenol

>  <CASRN>
104-43-8

>  <from_NCI>
1

>  <RBA>
0.020000

>  <method>
RUC

>  <chemical_class>
Alkylphenol

>  <set>
1

$$$$
tox-258
  Cerius2 12190218263D 1   1.00000                          
 Structure written by MMmdl.
 44 46  0  0  0  0  0  0  0  0999 V2000
   -3.4210   -1.5698    0.0029 C   0  0  0  0  0  0
   -2.1335    0.6435   -0.2864 C   0  0  0  0  0  0
   -0.9152   -0.0811   -0.3648 C   0  0  0  0  0  0
   -3.5056   -0.0573   -0.3729 C   0  0  0  0  0  0
    0.3483    0.5968   -0.2855 C   0  0  0  0  0  0
   -4.6841   -2.3329   -0.4872 C   0  0  0  0  0  0
    0.3682    2.0047   -0.1784 C   0  0  0  0  0  0
   -2.2781   -2.2002   -0.8146 C   0  0  0  0  0  0
   -0.9244   -1.5943   -0.4773 C   0  0  0  0  0  0
   -2.0590    2.0411   -0.1947 C   0  0  0  0  0  0
    1.6043   -0.0562   -0.3023 C   0  0  0  0  0  0
   -0.8355    2.7083   -0.1411 C   0  0  0  0  0  0
    1.5894    2.6994   -0.1069 C   0  0  0  0  0  0
   -5.1251   -2.0677   -1.6420 O   0  0  0  0  0  0
    2.8128    2.0293   -0.1320 C   0  0  0  0  0  0
   -5.1843   -3.1933    0.2928 O   0  0  0  0  0  0
    2.8160    0.6449   -0.2281 C   0  0  0  0  0  0
   -3.2004   -1.7906    1.5153 C   0  0  0  0  0  0
   -4.6428    0.6478    0.4269 C   0  0  0  0  0  0
    3.9147    2.8345   -0.0536 O   0  0  0  0  0  0
    5.1858    2.1862   -0.0758 C   0  0  0  0  0  0
   -5.5069    1.5589   -0.4430 C   0  0  0  0  0  0
   -3.7655    0.0084   -1.4400 H   0  0  0  0  0  0
   -2.4648   -2.0593   -1.8889 H   0  0  0  0  0  0
   -2.2355   -3.2864   -0.6597 H   0  0  0  0  0  0
   -0.5657   -2.0122    0.4716 H   0  0  0  0  0  0
   -0.2282   -1.9101   -1.2636 H   0  0  0  0  0  0
   -2.9542    2.6556   -0.1575 H   0  0  0  0  0  0
    1.6668   -1.1415   -0.3694 H   0  0  0  0  0  0
   -0.8398    3.7956   -0.0637 H   0  0  0  0  0  0
    1.5900    3.7866   -0.0273 H   0  0  0  0  0  0
    3.7370    0.0685   -0.2478 H   0  0  0  0  0  0
   -2.9491   -2.8367    1.7271 H   0  0  0  0  0  0
   -4.0992   -1.5561    2.0958 H   0  0  0  0  0  0
   -2.3893   -1.1735    1.9140 H   0  0  0  0  0  0
   -4.2417    1.2105    1.2778 H   0  0  0  0  0  0
   -5.3314   -0.0910    0.8527 H   0  0  0  0  0  0
    5.9553    2.9612   -0.0081 H   0  0  0  0  0  0
    5.3361    1.6473   -1.0171 H   0  0  0  0  0  0
    5.3034    1.5220    0.7866 H   0  0  0  0  0  0
   -6.2628    2.0572    0.1724 H   0  0  0  0  0  0
   -6.0311    0.9743   -1.2065 H   0  0  0  0  0  0
   -4.9258    2.3297   -0.9537 H   0  0  0  0  0  0
   -5.8653   -3.5461   -0.0737 H   0  0  0  0  0  0
  1  4  1  0  0  0
  1  6  1  0  0  0
  1  8  1  0  0  0
  1 18  1  0  0  0
  2  3  2  0  0  0
  2  4  1  0  0  0
  2 10  1  0  0  0
  3  5  1  0  0  0
  3  9  1  0  0  0
  4 19  1  0  0  0
  4 23  1  0  0  0
  5  7  2  0  0  0
  5 11  1  0  0  0
  6 14  2  0  0  0
  6 16  1  0  0  0
  7 12  1  0  0  0
  7 13  1  0  0  0
  8  9  1  0  0  0
  8 24  1  0  0  0
  8 25  1  0  0  0
  9 26  1  0  0  0
  9 27  1  0  0  0
 10 12  2  0  0  0
 10 28  1  0  0  0
 11 17  2  0  0  0
 11 29  1  0  0  0
 12 30  1  0  0  0
 13 15  2  0  0  0
 13 31  1  0  0  0
 15 17  1  0  0  0
 15 20  1  0  0  0
 16 44  1  0  0  0
 17 32  1  0  0  0
 18 33  1  0  0  0
 18 34  1  0  0  0
 18 35  1  0  0  0
 19 22  1  0  0  0
 19 36  1  0  0  0
 19 37  1  0  0  0
 20 21  1  0  0  0
 21 38  1  0  0  0
 21 39  1  0  0  0
 21 40  1  0  0  0
 22 41  1  0  0  0
 22 42  1  0  0  0
 22 43  1  0  0  0
M  END
>  <Name>
tox-258

>  <substance>
Doisynoestrol

>  <CASRN>
15372-34-6

>  <from_NCI>
1

>  <RBA>
0.002000

>  <method>
RUC

>  <chemical_class>
Tetrahydrophenanthrene

>  <set>
1

$$$$
tox-259
  Cerius2 12190218263D 1   1.00000                          
 Structure written by MMmdl.
 22 22  0  0  0  0  0  0  0  0999 V2000
   -0.0724    0.4474   -0.6721 C   0  0  0  0  0  0
   -1.2425    1.1880   -0.4422 C   0  0  0  0  0  0
   -0.1969   -0.9143   -0.8876 C   0  0  0  0  0  0
    1.2842    1.1125   -0.6614 C   0  0  0  0  0  0
   -2.5574    0.6356   -0.4268 C   0  0  0  0  0  0
   -1.4669   -1.4996   -0.8808 C   0  0  0  0  0  0
    1.9263    1.0938    0.7306 C   0  0  0  0  0  0
   -2.6751   -0.7821   -0.6595 C   0  0  0  0  0  0
   -3.5540    1.4099   -0.2106 O   0  0  0  0  0  0
    3.2446    1.7395    0.7199 N   0  0  0  0  0  0
   -3.7874   -1.4159   -0.6758 O   0  0  0  0  0  0
   -1.1297    2.2632   -0.2640 H   0  0  0  0  0  0
    0.6787   -1.5368   -1.0632 H   0  0  0  0  0  0
    1.1826    2.1459   -1.0180 H   0  0  0  0  0  0
    1.9375    0.6085   -1.3859 H   0  0  0  0  0  0
   -1.5139   -2.5791   -1.0586 H   0  0  0  0  0  0
    2.0449    0.0616    1.0790 H   0  0  0  0  0  0
    1.2817    1.6080    1.4531 H   0  0  0  0  0  0
    3.5850    1.7778    1.6886 H   0  0  0  0  0  0
    3.1151    2.7287    0.4754 H   0  0  0  0  0  0
   -4.2733    0.9574   -0.2279 H   0  0  0  0  0  0
   -3.6421   -2.2393   -0.8286 H   0  0  0  0  0  0
  1  2  2  0  0  0
  1  3  1  0  0  0
  1  4  1  0  0  0
  2  5  1  0  0  0
  2 12  1  0  0  0
  3  6  2  0  0  0
  3 13  1  0  0  0
  4  7  1  0  0  0
  4 14  1  0  0  0
  4 15  1  0  0  0
  5  8  2  0  0  0
  5  9  1  0  0  0
  6  8  1  0  0  0
  6 16  1  0  0  0
  7 10  1  0  0  0
  7 17  1  0  0  0
  7 18  1  0  0  0
  8 11  1  0  0  0
  9 21  1  0  0  0
 10 19  1  0  0  0
 10 20  1  0  0  0
 11 22  1  0  0  0
M  END
>  <Name>
tox-259

>  <substance>
Dopamine

>  <CASRN>
51-61-6

>  <from_NCI>
1

>  <RBA>
0.000000

>  <method>
RUC

>  <chemical_class>
Alkylphenol

>  <set>
1

$$$$
tox-260
  Cerius2 12190218263D 1   1.00000                          
 Structure written by MMmdl.
 58 60  0  0  0  0  0  0  0  0999 V2000
   -2.2916   -0.4640   -1.5908 C   0  0  0  0  0  0
   -3.4805    0.1580   -1.8260 C   0  0  0  0  0  0
   -1.0304    0.3205   -1.5053 C   0  0  0  0  0  0
   -2.2501   -1.9421   -1.4345 C   0  0  0  0  0  0
   -3.5712    1.6297   -1.9986 C   0  0  0  0  0  0
   -4.8198   -0.5451   -2.0002 C   0  0  0  0  0  0
   -0.3294    0.6684   -2.6654 C   0  0  0  0  0  0
   -0.5204    0.7103   -0.2611 C   0  0  0  0  0  0
   -2.5042   -2.5428   -0.1820 C   0  0  0  0  0  0
   -1.9450   -2.7514   -2.5281 C   0  0  0  0  0  0
   -3.6297    2.1874   -3.2827 C   0  0  0  0  0  0
   -3.5998    2.4779   -0.8834 C   0  0  0  0  0  0
   -5.7070   -0.4421   -0.7654 C   0  0  0  0  0  0
    0.8553    1.4054   -2.5779 C   0  0  0  0  0  0
    0.6660    1.4499   -0.1765 C   0  0  0  0  0  0
   -2.4742   -3.9389    0.0344 C   0  0  0  0  0  0
   -1.9045   -4.1308   -2.3655 C   0  0  0  0  0  0
   -3.7142    3.5718   -3.4477 C   0  0  0  0  0  0
   -3.6843    3.8618   -1.0505 C   0  0  0  0  0  0
    1.3577    1.8020   -1.3359 C   0  0  0  0  0  0
   -2.1651   -4.7011   -1.1094 C   0  0  0  0  0  0
   -2.7062   -4.4665    1.1688 O   0  0  0  0  0  0
   -3.7415    4.4077   -2.3321 C   0  0  0  0  0  0
    2.5211    2.5189   -1.3916 O   0  0  0  0  0  0
    3.0681    2.9705   -0.1442 C   0  0  0  0  0  0
    4.3468    3.7726   -0.4457 C   0  0  0  0  0  0
    4.9545    4.4275    0.7350 N   0  0  0  0  0  0
    6.0358    5.3229    0.2964 C   0  0  0  0  0  0
    5.4979    3.4379    1.6755 C   0  0  0  0  0  0
   -4.6870   -1.6045   -2.2440 H   0  0  0  0  0  0
   -5.3547   -0.1257   -2.8619 H   0  0  0  0  0  0
   -0.7024    0.3731   -3.6443 H   0  0  0  0  0  0
   -1.0470    0.4466    0.6546 H   0  0  0  0  0  0
   -2.7368   -1.8841    0.6594 H   0  0  0  0  0  0
   -1.7433   -2.3170   -3.5049 H   0  0  0  0  0  0
   -3.6043    1.5470   -4.1629 H   0  0  0  0  0  0
   -3.5569    2.0647    0.1230 H   0  0  0  0  0  0
   -6.6285   -1.0133   -0.9182 H   0  0  0  0  0  0
   -5.9905    0.5947   -0.5590 H   0  0  0  0  0  0
   -5.2051   -0.8430    0.1210 H   0  0  0  0  0  0
    1.3854    1.6712   -3.4909 H   0  0  0  0  0  0
    1.0159    1.7318    0.8125 H   0  0  0  0  0  0
   -1.6703   -4.7732   -3.2124 H   0  0  0  0  0  0
   -3.7568    3.9978   -4.4483 H   0  0  0  0  0  0
   -3.7043    4.5138   -0.1793 H   0  0  0  0  0  0
   -2.1200   -5.7917   -1.0350 H   0  0  0  0  0  0
   -3.8066    5.4865   -2.4617 H   0  0  0  0  0  0
    3.3067    2.1039    0.4821 H   0  0  0  0  0  0
    2.3457    3.6203    0.3646 H   0  0  0  0  0  0
    4.0745    4.5427   -1.1804 H   0  0  0  0  0  0
    5.0721    3.1235   -0.9551 H   0  0  0  0  0  0
    6.4737    5.8442    1.1551 H   0  0  0  0  0  0
    5.6449    6.0975   -0.3728 H   0  0  0  0  0  0
    6.8339    4.7827   -0.2258 H   0  0  0  0  0  0
    5.9803    3.9399    2.5221 H   0  0  0  0  0  0
    6.2342    2.7786    1.2019 H   0  0  0  0  0  0
    4.7003    2.8226    2.1030 H   0  0  0  0  0  0
   -2.6433   -5.3119    1.1063 H   0  0  0  0  0  0
  1  2  2  0  0  0
  1  3  1  0  0  0
  1  4  1  0  0  0
  2  5  1  0  0  0
  2  6  1  0  0  0
  3  7  2  0  0  0
  3  8  1  0  0  0
  4  9  2  0  0  0
  4 10  1  0  0  0
  5 11  2  0  0  0
  5 12  1  0  0  0
  6 13  1  0  0  0
  6 30  1  0  0  0
  6 31  1  0  0  0
  7 14  1  0  0  0
  7 32  1  0  0  0
  8 15  2  0  0  0
  8 33  1  0  0  0
  9 16  1  0  0  0
  9 34  1  0  0  0
 10 17  2  0  0  0
 10 35  1  0  0  0
 11 18  1  0  0  0
 11 36  1  0  0  0
 12 19  2  0  0  0
 12 37  1  0  0  0
 13 38  1  0  0  0
 13 39  1  0  0  0
 13 40  1  0  0  0
 14 20  2  0  0  0
 14 41  1  0  0  0
 15 20  1  0  0  0
 15 42  1  0  0  0
 16 21  2  0  0  0
 16 22  1  0  0  0
 17 21  1  0  0  0
 17 43  1  0  0  0
 18 23  2  0  0  0
 18 44  1  0  0  0
 19 23  1  0  0  0
 19 45  1  0  0  0
 20 24  1  0  0  0
 21 46  1  0  0  0
 22 58  1  0  0  0
 23 47  1  0  0  0
 24 25  1  0  0  0
 25 26  1  0  0  0
 25 48  1  0  0  0
 25 49  1  0  0  0
 26 27  1  0  0  0
 26 50  1  0  0  0
 26 51  1  0  0  0
 27 28  1  0  0  0
 27 29  1  0  0  0
 28 52  1  0  0  0
 28 53  1  0  0  0
 28 54  1  0  0  0
 29 55  1  0  0  0
 29 56  1  0  0  0
 29 57  1  0  0  0
M  END
>  <Name>
tox-260

>  <substance>
Droloxifene

>  <CASRN>
82413-20-5

>  <from_NCI>
1

>  <RBA>
8.900000

>  <method>
MCF-7 cytosol,RUC

>  <chemical_class>
Stilbene; Triphenylethylene

>  <set>
0

$$$$
tox-261
  Cerius2 12190218263D 1   1.00000                          
 Structure written by MMmdl.
 46 46  0  0  0  0  0  0  0  0999 V2000
   -1.4235    0.3229   -0.7005 C   0  0  0  0  0  0
   -2.9139    0.0454   -0.7348 C   0  0  0  0  0  0
   -1.9326   -1.1121   -0.6614 C   0  0  0  0  0  0
   -0.8162    0.9619    0.4898 C   0  0  0  0  0  0
   -3.6625    0.3208   -1.9694 C   0  0  0  0  0  0
   -1.8963   -1.8898    0.6332 C   0  0  0  0  0  0
   -1.6522   -1.9673   -1.8746 C   0  0  0  0  0  0
    0.3887    0.4124    0.7730 O   0  0  0  0  0  0
   -1.3633    1.8788    1.0881 O   0  0  0  0  0  0
   -4.7713   -0.3093   -2.4047 C   0  0  0  0  0  0
    1.0558    0.9398    1.9306 C   0  0  0  0  0  0
   -5.4359   -1.4403   -1.6689 C   0  0  0  0  0  0
   -5.4380    0.0834   -3.6953 C   0  0  0  0  0  0
    2.5587    0.8189    1.6639 C   0  0  0  0  0  0
    0.5985    0.2052    3.1280 C   0  0  0  0  0  0
    3.3765   -0.0831    2.2522 C   0  0  0  0  0  0
    3.0460    1.8291    0.6503 C   0  0  0  0  0  0
    0.2005   -0.3850    4.0966 C   0  0  0  0  0  0
    4.8638   -0.2341    2.0825 C   0  0  0  0  0  0
    5.2027   -1.4053    1.1751 C   0  0  0  0  0  0
   -0.9647    0.6607   -1.6244 H   0  0  0  0  0  0
   -3.4713    0.2968    0.1655 H   0  0  0  0  0  0
   -3.2700    1.1372   -2.5780 H   0  0  0  0  0  0
   -2.6055   -2.7233    0.5927 H   0  0  0  0  0  0
   -2.1625   -1.2729    1.4980 H   0  0  0  0  0  0
   -0.8952   -2.2989    0.8040 H   0  0  0  0  0  0
   -2.4332   -2.7252   -1.9956 H   0  0  0  0  0  0
   -0.6923   -2.4819   -1.7587 H   0  0  0  0  0  0
   -1.5994   -1.3825   -2.7989 H   0  0  0  0  0  0
    0.8287    2.0061    2.0650 H   0  0  0  0  0  0
   -5.4316   -2.3449   -2.2857 H   0  0  0  0  0  0
   -6.4750   -1.1818   -1.4401 H   0  0  0  0  0  0
   -4.9431   -1.6822   -0.7231 H   0  0  0  0  0  0
   -5.4585   -0.7669   -4.3848 H   0  0  0  0  0  0
   -4.9184    0.9063   -4.1972 H   0  0  0  0  0  0
   -6.4676    0.4050   -3.5075 H   0  0  0  0  0  0
    2.9561   -0.8057    2.9523 H   0  0  0  0  0  0
    4.0732    1.6580    0.3211 H   0  0  0  0  0  0
    2.9894    2.8387    1.0701 H   0  0  0  0  0  0
    2.4242    1.7961   -0.2510 H   0  0  0  0  0  0
   -0.1522   -0.9100    4.9562 H   0  0  0  0  0  0
    5.3061   -0.4034    3.0718 H   0  0  0  0  0  0
    5.3310    0.6787    1.7020 H   0  0  0  0  0  0
    6.2885   -1.5180    1.0933 H   0  0  0  0  0  0
    4.8013   -1.2536    0.1674 H   0  0  0  0  0  0
    4.7948   -2.3430    1.5675 H   0  0  0  0  0  0
  1  2  1  0  0  0
  1  3  1  0  0  0
  1  4  1  0  0  0
  1 21  1  0  0  0
  2  3  1  0  0  0
  2  5  1  0  0  0
  2 22  1  0  0  0
  3  6  1  0  0  0
  3  7  1  0  0  0
  4  8  1  0  0  0
  4  9  2  0  0  0
  5 10  2  0  0  0
  5 23  1  0  0  0
  6 24  1  0  0  0
  6 25  1  0  0  0
  6 26  1  0  0  0
  7 27  1  0  0  0
  7 28  1  0  0  0
  7 29  1  0  0  0
  8 11  1  0  0  0
 10 12  1  0  0  0
 10 13  1  0  0  0
 11 14  1  0  0  0
 11 15  1  0  0  0
 11 30  1  0  0  0
 12 31  1  0  0  0
 12 32  1  0  0  0
 12 33  1  0  0  0
 13 34  1  0  0  0
 13 35  1  0  0  0
 13 36  1  0  0  0
 14 16  2  0  0  0
 14 17  1  0  0  0
 15 18  3  0  0  0
 16 19  1  0  0  0
 16 37  1  0  0  0
 17 38  1  0  0  0
 17 39  1  0  0  0
 17 40  1  0  0  0
 18 41  1  0  0  0
 19 20  1  0  0  0
 19 42  1  0  0  0
 19 43  1  0  0  0
 20 44  1  0  0  0
 20 45  1  0  0  0
 20 46  1  0  0  0
M  END
>  <Name>
tox-261

>  <substance>
Empenthrin

>  <CASRN>
54406-48-3

>  <from_NCI>
1

>  <RBA>
0.000000

>  <method>
hERa-FP

>  <chemical_class>
Pyrethrin; Pyrethroid

>  <set>
2

$$$$
tox-262
  Cerius2 12190218263D 1   1.00000                          
 Structure written by MMmdl.
 25 27  0  0  0  0  0  0  0  0999 V2000
   -0.3655    1.5675    0.8729 C   0  0  0  0  0  0
    0.9908    0.7848    0.9883 C   0  0  0  0  0  0
   -0.3147    2.1139   -0.5921 C   0  0  0  0  0  0
   -1.4749    0.5419    0.7132 C   0  0  0  0  0  0
   -0.6026    2.7811    2.1268 Cl  0  0  0  0  0  0
    1.1360    0.1530   -0.4542 C   0  0  0  0  0  0
    1.0900   -0.1808    2.1729 C   0  0  0  0  0  0
   -0.1590    0.6707   -1.1755 C   0  0  0  0  0  0
    1.0559    3.2316   -0.9434 Cl  0  0  0  0  0  0
   -1.8125    2.9879   -1.1257 Cl  0  0  0  0  0  0
   -1.3519    0.0073   -0.5084 C   0  0  0  0  0  0
   -2.6021    0.1428    1.9167 Cl  0  0  0  0  0  0
    1.3606   -1.3606   -0.5200 C   0  0  0  0  0  0
    2.4148   -0.7075    2.2562 O   0  0  0  0  0  0
   -0.0926    0.5661   -2.9322 Cl  0  0  0  0  0  0
   -2.2878   -1.2238   -1.2062 Cl  0  0  0  0  0  0
    2.6385   -1.6831    0.0300 O   0  0  0  0  0  0
    2.6980   -2.1377    1.5733 S   0  0  0  0  0  0
    1.5327   -3.0423    1.8526 O   0  0  0  0  0  0
    1.8175    1.5007    1.1034 H   0  0  0  0  0  0
    2.0208    0.6168   -0.9137 H   0  0  0  0  0  0
    0.3296   -0.9679    2.1492 H   0  0  0  0  0  0
    0.9246    0.3725    3.1039 H   0  0  0  0  0  0
    1.3940   -1.6748   -1.5690 H   0  0  0  0  0  0
    0.5512   -1.9346   -0.0575 H   0  0  0  0  0  0
  1  2  1  0  0  0
  1  3  1  0  0  0
  1  4  1  0  0  0
  1  5  1  0  0  0
  2  6  1  0  0  0
  2  7  1  0  0  0
  2 20  1  0  0  0
  3  8  1  0  0  0
  3  9  1  0  0  0
  3 10  1  0  0  0
  4 11  2  0  0  0
  4 12  1  0  0  0
  6  8  1  0  0  0
  6 13  1  0  0  0
  6 21  1  0  0  0
  7 14  1  0  0  0
  7 22  1  0  0  0
  7 23  1  0  0  0
  8 11  1  0  0  0
  8 15  1  0  0  0
 11 16  1  0  0  0
 13 17  1  0  0  0
 13 24  1  0  0  0
 13 25  1  0  0  0
 14 18  1  0  0  0
 17 18  1  0  0  0
 18 19  2  0  0  0
M  END
>  <Name>
tox-262

>  <substance>
a-Endosulfan

>  <CASRN>
959-98-8

>  <from_NCI>
1

>  <RBA>
0.000000

>  <method>
GST-hERadef,GST-mERadef,hERa

>  <chemical_class>
Organochlorine

>  <set>
1

$$$$
tox-263
  Cerius2 12190218263D 1   1.00000                          
 Structure written by MMmdl.
 25 27  0  0  0  0  0  0  0  0999 V2000
    0.4688   -1.4790    0.8769 C   0  0  0  0  0  0
   -0.9138   -0.7442    0.9950 C   0  0  0  0  0  0
    0.4412   -2.0130   -0.5933 C   0  0  0  0  0  0
    1.5430   -0.4146    0.7304 C   0  0  0  0  0  0
    0.7435   -2.6954    2.1204 Cl  0  0  0  0  0  0
   -1.0762   -0.1042   -0.4421 C   0  0  0  0  0  0
   -1.0495    0.2064    2.1881 C   0  0  0  0  0  0
    0.2381   -0.5706   -1.1638 C   0  0  0  0  0  0
   -0.8893   -3.1736   -0.9595 Cl  0  0  0  0  0  0
    1.9698   -2.8303   -1.1299 Cl  0  0  0  0  0  0
    1.4055    0.1270   -0.4865 C   0  0  0  0  0  0
    2.6523    0.0115    1.9414 Cl  0  0  0  0  0  0
   -1.3523    1.4012   -0.4948 C   0  0  0  0  0  0
   -2.3918    0.6867    2.2719 O   0  0  0  0  0  0
    0.1735   -0.4519   -2.9197 Cl  0  0  0  0  0  0
    2.3009    1.3958   -1.1698 Cl  0  0  0  0  0  0
   -2.6421    1.6746    0.0540 O   0  0  0  0  0  0
   -2.7217    2.1127    1.6012 S   0  0  0  0  0  0
   -1.5889    3.0539    1.8926 O   0  0  0  0  0  0
   -1.7158   -1.4889    1.1007 H   0  0  0  0  0  0
   -1.9431   -0.5938   -0.9089 H   0  0  0  0  0  0
   -0.3164    1.0192    2.1741 H   0  0  0  0  0  0
   -0.8681   -0.3496    3.1145 H   0  0  0  0  0  0
   -1.3934    1.7238   -1.5410 H   0  0  0  0  0  0
   -0.5645    1.9983   -0.0245 H   0  0  0  0  0  0
  1  2  1  0  0  0
  1  3  1  0  0  0
  1  4  1  0  0  0
  1  5  1  0  0  0
  2  6  1  0  0  0
  2  7  1  0  0  0
  2 20  1  0  0  0
  3  8  1  0  0  0
  3  9  1  0  0  0
  3 10  1  0  0  0
  4 11  2  0  0  0
  4 12  1  0  0  0
  6  8  1  0  0  0
  6 13  1  0  0  0
  6 21  1  0  0  0
  7 14  1  0  0  0
  7 22  1  0  0  0
  7 23  1  0  0  0
  8 11  1  0  0  0
  8 15  1  0  0  0
 11 16  1  0  0  0
 13 17  1  0  0  0
 13 24  1  0  0  0
 13 25  1  0  0  0
 14 18  1  0  0  0
 17 18  1  0  0  0
 18 19  2  0  0  0
M  END
>  <Name>
tox-263

>  <substance>
a,b-Endosulfan

>  <CASRN>
115-29-7

>  <from_NCI>
1

>  <RBA>
0.000090

>  <method>
hERa,MUC,RBC,RUC,RUC

>  <chemical_class>
Organochlorine; Chlorinated cyclodiene

>  <set>
0

$$$$
tox-264
  Cerius2 12190218263D 1   1.00000                          
 Structure written by MMmdl.
 25 27  0  0  0  0  0  0  0  0999 V2000
    0.4115   -1.5274    0.8732 C   0  0  0  0  0  0
   -0.9582   -0.7685    0.9888 C   0  0  0  0  0  0
    0.3705   -2.0736   -0.5922 C   0  0  0  0  0  0
    1.5030   -0.4826    0.7143 C   0  0  0  0  0  0
    0.6696   -2.7375    2.1264 Cl  0  0  0  0  0  0
   -1.1142   -0.1383   -0.4533 C   0  0  0  0  0  0
   -1.0745    0.1944    2.1740 C   0  0  0  0  0  0
    0.1898   -0.6330   -1.1747 C   0  0  0  0  0  0
   -0.9804   -3.2148   -0.9445 Cl  0  0  0  0  0  0
    1.8834   -2.9211   -1.1262 Cl  0  0  0  0  0  0
    1.3709    0.0507   -0.5069 C   0  0  0  0  0  0
    2.6229   -0.0646    1.9183 Cl  0  0  0  0  0  0
   -1.3650    1.3711   -0.5181 C   0  0  0  0  0  0
   -2.4083    0.6979    2.2575 O   0  0  0  0  0  0
    0.1218   -0.5284   -2.9313 Cl  0  0  0  0  0  0
    2.2853    1.2983   -1.2038 Cl  0  0  0  0  0  0
   -2.6484    1.6710    0.0318 O   0  0  0  0  0  0
   -2.7162    2.1235    1.5755 S   0  0  0  0  0  0
   -1.5669    3.0480    1.8556 O   0  0  0  0  0  0
   -1.7723   -1.4988    1.1033 H   0  0  0  0  0  0
   -1.9907   -0.6172   -0.9133 H   0  0  0  0  0  0
   -0.3278    0.9947    2.1510 H   0  0  0  0  0  0
   -0.8996   -0.3565    3.1047 H   0  0  0  0  0  0
   -1.4037    1.6855   -1.5669 H   0  0  0  0  0  0
   -0.5659    1.9588   -0.0551 H   0  0  0  0  0  0
  1  2  1  0  0  0
  1  3  1  0  0  0
  1  4  1  0  0  0
  1  5  1  0  0  0
  2  6  1  0  0  0
  2  7  1  0  0  0
  2 20  1  0  0  0
  3  8  1  0  0  0
  3  9  1  0  0  0
  3 10  1  0  0  0
  4 11  2  0  0  0
  4 12  1  0  0  0
  6  8  1  0  0  0
  6 13  1  0  0  0
  6 21  1  0  0  0
  7 14  1  0  0  0
  7 22  1  0  0  0
  7 23  1  0  0  0
  8 11  1  0  0  0
  8 15  1  0  0  0
 11 16  1  0  0  0
 13 17  1  0  0  0
 13 24  1  0  0  0
 13 25  1  0  0  0
 14 18  1  0  0  0
 17 18  1  0  0  0
 18 19  2  0  0  0
M  END
>  <Name>
tox-264

>  <substance>
b-Endosulfan

>  <CASRN>
33213-65-9

>  <from_NCI>
1

>  <RBA>
0.000060

>  <method>
GST-hERadef,GST-mERadef,hERa,MCF-7 cytosol

>  <chemical_class>
Organochlorine; Chlorinated cyclodiene

>  <set>
0

$$$$
tox-265
  Cerius2 12190218263D 1   1.00000                          
 Structure written by MMmdl.
 45 48  0  0  0  0  0  0  0  0999 V2000
    2.4226    1.8489    0.1359 C   0  0  0  0  0  0
    2.3194    0.2973    0.1472 C   0  0  0  0  0  0
    3.4507   -0.1283    1.0844 C   0  0  0  0  0  0
    4.6542    0.8126    0.7088 C   0  0  0  0  0  0
    3.9813    2.0005   -0.1413 C   0  0  0  0  0  0
   -3.8501   -0.1749   -1.0557 C   0  0  0  0  0  0
   -4.1407   -1.3322   -0.3170 C   0  0  0  0  0  0
   -3.0172   -1.9259    0.2874 C   0  0  0  0  0  0
   -2.5534    0.3576   -1.1782 C   0  0  0  0  0  0
   -1.4582   -0.2415   -0.5477 C   0  0  0  0  0  0
   -1.6982   -1.4206    0.1756 C   0  0  0  0  0  0
   -0.5956   -2.1596    0.8996 C   0  0  0  0  0  0
    0.8123   -1.7331    0.4904 C   0  0  0  0  0  0
   -0.0405    0.2996   -0.7152 C   0  0  0  0  0  0
    0.8976   -0.2053    0.4223 C   0  0  0  0  0  0
    1.5101    2.3472   -1.0108 C   0  0  0  0  0  0
    0.0611    1.8373   -0.8833 C   0  0  0  0  0  0
    1.9471    2.5034    1.4708 C   0  0  0  0  0  0
    4.4617    3.2165    0.0887 O   0  0  0  0  0  0
    5.2596    1.1556    1.8367 O   0  0  0  0  0  0
   -5.3158   -1.8051   -0.2067 O   0  0  0  0  0  0
    2.5950   -0.0800   -0.8517 H   0  0  0  0  0  0
    3.7266   -1.1782    0.9260 H   0  0  0  0  0  0
    3.1326   -0.0379    2.1320 H   0  0  0  0  0  0
    5.2369    0.2498   -0.0394 H   0  0  0  0  0  0
    4.0907    1.6396   -1.1806 H   0  0  0  0  0  0
   -4.6574    0.3527   -1.5724 H   0  0  0  0  0  0
   -3.1612   -2.8351    0.8807 H   0  0  0  0  0  0
   -2.4346    1.2500   -1.7894 H   0  0  0  0  0  0
   -0.6982   -3.2381    0.7289 H   0  0  0  0  0  0
   -0.7240   -1.9823    1.9751 H   0  0  0  0  0  0
    1.0652   -2.1673   -0.4855 H   0  0  0  0  0  0
    1.5266   -2.1390    1.2151 H   0  0  0  0  0  0
    0.3188   -0.1379   -1.6597 H   0  0  0  0  0  0
    0.5502    0.1828    1.3879 H   0  0  0  0  0  0
    1.9093    2.0088   -1.9759 H   0  0  0  0  0  0
    1.5081    3.4433   -1.0468 H   0  0  0  0  0  0
   -0.4418    2.3379   -0.0474 H   0  0  0  0  0  0
   -0.4697    2.1537   -1.7888 H   0  0  0  0  0  0
    2.0116    3.5958    1.4059 H   0  0  0  0  0  0
    2.5568    2.1938    2.3242 H   0  0  0  0  0  0
    0.9095    2.2678    1.7184 H   0  0  0  0  0  0
    5.2951    3.2282   -0.0782 H   0  0  0  0  0  0
    5.9164    1.6661    1.6619 H   0  0  0  0  0  0
   -5.2955   -2.5048    0.2755 H   0  0  0  0  0  0
  1  2  1  0  0  0
  1  5  1  0  0  0
  1 16  1  0  0  0
  1 18  1  0  0  0
  2  3  1  0  0  0
  2 15  1  0  0  0
  2 22  1  0  0  0
  3  4  1  0  0  0
  3 23  1  0  0  0
  3 24  1  0  0  0
  4  5  1  0  0  0
  4 20  1  0  0  0
  4 25  1  0  0  0
  5 19  1  0  0  0
  5 26  1  0  0  0
  6  7  2  0  0  0
  6  9  1  0  0  0
  6 27  1  0  0  0
  7  8  1  0  0  0
  7 21  1  0  0  0
  8 11  2  0  0  0
  8 28  1  0  0  0
  9 10  2  0  0  0
  9 29  1  0  0  0
 10 11  1  0  0  0
 10 14  1  0  0  0
 11 12  1  0  0  0
 12 13  1  0  0  0
 12 30  1  0  0  0
 12 31  1  0  0  0
 13 15  1  0  0  0
 13 32  1  0  0  0
 13 33  1  0  0  0
 14 15  1  0  0  0
 14 17  1  0  0  0
 14 34  1  0  0  0
 15 35  1  0  0  0
 16 17  1  0  0  0
 16 36  1  0  0  0
 16 37  1  0  0  0
 17 38  1  0  0  0
 17 39  1  0  0  0
 18 40  1  0  0  0
 18 41  1  0  0  0
 18 42  1  0  0  0
 19 43  1  0  0  0
 20 44  1  0  0  0
 21 45  1  0  0  0
M  END
>  <Name>
tox-265

>  <substance>
16-Epiestriol

>  <CASRN>
547-81-9

>  <from_NCI>
1

>  <RBA>
44.000000

>  <method>
RBC

>  <chemical_class>
Steroid, phenolic

>  <set>
0

$$$$
tox-266
  Cerius2 12190218263D 1   1.00000                          
 Structure written by MMmdl.
 45 48  0  0  0  0  0  0  0  0999 V2000
    2.3593    1.8232    0.0897 C   0  0  0  0  0  0
    2.2456    0.2745    0.0949 C   0  0  0  0  0  0
    3.9165    1.9582   -0.1965 C   0  0  0  0  0  0
    1.4424    2.3391   -1.0423 C   0  0  0  0  0  0
    0.8228   -0.2212    0.3770 C   0  0  0  0  0  0
    3.3844   -0.1713    1.0179 C   0  0  0  0  0  0
    4.3971    3.1625    0.0928 O   0  0  0  0  0  0
    4.5417    0.8698    0.7872 C   0  0  0  0  0  0
   -0.0093    1.8401   -0.9036 C   0  0  0  0  0  0
   -0.1222    0.3018   -0.7465 C   0  0  0  0  0  0
    0.7272   -1.7489    0.4306 C   0  0  0  0  0  0
    5.5477    0.2511    0.1837 O   0  0  0  0  0  0
   -1.5426   -0.2287   -0.5678 C   0  0  0  0  0  0
   -0.6797   -2.1693    0.8495 C   0  0  0  0  0  0
   -1.7843   -1.4132    0.1462 C   0  0  0  0  0  0
   -2.6402    0.3867   -1.1783 C   0  0  0  0  0  0
   -3.1062   -1.9082    0.2688 C   0  0  0  0  0  0
   -3.9399   -0.1357   -1.0453 C   0  0  0  0  0  0
   -4.2317   -1.2982   -0.3153 C   0  0  0  0  0  0
   -5.4096   -1.7620   -0.1954 O   0  0  0  0  0  0
    1.9070    2.4645    1.4408 C   0  0  0  0  0  0
    2.5100   -0.0967   -0.9093 H   0  0  0  0  0  0
    4.0487    1.5911   -1.2302 H   0  0  0  0  0  0
    1.8301    2.0054   -2.0137 H   0  0  0  0  0  0
    1.4495    3.4354   -1.0687 H   0  0  0  0  0  0
    0.4869    0.1594    1.3496 H   0  0  0  0  0  0
    3.6720   -1.2123    0.8211 H   0  0  0  0  0  0
    3.0611   -0.1307    2.0661 H   0  0  0  0  0  0
    4.7103    1.3358    1.7716 H   0  0  0  0  0  0
   -0.5470    2.1682   -1.8009 H   0  0  0  0  0  0
   -0.4989    2.3381   -0.0584 H   0  0  0  0  0  0
    0.2233   -0.1309   -1.6984 H   0  0  0  0  0  0
    1.4461   -2.1673    1.1435 H   0  0  0  0  0  0
    0.9670   -2.1749   -0.5522 H   0  0  0  0  0  0
   -0.7953   -2.0039    1.9284 H   0  0  0  0  0  0
   -0.7926   -3.2449    0.6672 H   0  0  0  0  0  0
   -2.5210    1.2846   -1.7813 H   0  0  0  0  0  0
   -3.2511   -2.8224    0.8543 H   0  0  0  0  0  0
   -4.7489    0.4045   -1.5461 H   0  0  0  0  0  0
    1.9774    3.5572    1.3897 H   0  0  0  0  0  0
    2.5232    2.1381    2.2838 H   0  0  0  0  0  0
    0.8702    2.2341    1.6969 H   0  0  0  0  0  0
    5.2297    3.1835   -0.0768 H   0  0  0  0  0  0
    5.8799   -0.3286    0.7091 H   0  0  0  0  0  0
   -5.9549   -1.2621   -0.6140 H   0  0  0  0  0  0
  1  2  1  0  0  0
  1  3  1  0  0  0
  1  4  1  0  0  0
  1 21  1  0  0  0
  2  5  1  0  0  0
  2  6  1  0  0  0
  2 22  1  0  0  0
  3  7  1  0  0  0
  3  8  1  0  0  0
  3 23  1  0  0  0
  4  9  1  0  0  0
  4 24  1  0  0  0
  4 25  1  0  0  0
  5 10  1  0  0  0
  5 11  1  0  0  0
  5 26  1  0  0  0
  6  8  1  0  0  0
  6 27  1  0  0  0
  6 28  1  0  0  0
  7 43  1  0  0  0
  8 12  1  0  0  0
  8 29  1  0  0  0
  9 10  1  0  0  0
  9 30  1  0  0  0
  9 31  1  0  0  0
 10 13  1  0  0  0
 10 32  1  0  0  0
 11 14  1  0  0  0
 11 33  1  0  0  0
 11 34  1  0  0  0
 12 44  1  0  0  0
 13 15  2  0  0  0
 13 16  1  0  0  0
 14 15  1  0  0  0
 14 35  1  0  0  0
 14 36  1  0  0  0
 15 17  1  0  0  0
 16 18  2  0  0  0
 16 37  1  0  0  0
 17 19  2  0  0  0
 17 38  1  0  0  0
 18 19  1  0  0  0
 18 39  1  0  0  0
 19 20  1  0  0  0
 20 45  1  0  0  0
 21 40  1  0  0  0
 21 41  1  0  0  0
 21 42  1  0  0  0
M  END
>  <Name>
tox-266

>  <substance>
17-Epiestriol

>  <CASRN>
1228-72-4

>  <from_NCI>
1

>  <RBA>
29.000000

>  <method>
hERa

>  <chemical_class>
Steroid, phenolic

>  <set>
0

$$$$
tox-267
  Cerius2 12190218263D 1   1.00000                          
 Structure written by MMmdl.
 49 52  0  0  0  0  0  0  0  0999 V2000
   -7.0019   -4.4290   11.7520 C   0  0  0  0  0  0
   -7.7426   -4.5886   13.1161 C   0  0  0  0  0  0
   -7.8216   -5.1127   10.6470 C   0  0  0  0  0  0
   -5.5902   -5.0246   11.8475 C   0  0  0  0  0  0
   -6.9491   -3.9543   14.3243 C   0  0  0  0  0  0
   -9.2215   -4.1252   13.0271 C   0  0  0  0  0  0
   -9.2507   -4.5344   10.4982 C   0  0  0  0  0  0
   -7.2774   -5.0805    9.2245 C   0  0  0  0  0  0
   -4.7846   -4.3638   12.9581 C   0  0  0  0  0  0
   -5.4911   -4.4343   14.2920 C   0  0  0  0  0  0
   -7.6276   -4.4107   15.6501 C   0  0  0  0  0  0
   -6.9480   -2.4098   14.2685 C   0  0  0  0  0  0
   -9.9876   -4.7400   11.8408 C   0  0  0  0  0  0
   -9.7950   -5.2745    9.2086 C   0  0  0  0  0  0
   -9.2553   -3.0036   10.1771 C   0  0  0  0  0  0
   -8.4958   -5.4274    8.3417 C   0  0  0  0  0  0
   -4.8244   -4.8783   15.3731 C   0  0  0  0  0  0
   -6.7701   -4.1887   16.8878 C   0  0  0  0  0  0
  -10.2714   -6.4882    9.4528 O   0  0  0  0  0  0
   -5.4272   -4.8513   16.7257 C   0  0  0  0  0  0
   -4.7938   -5.2997   17.6840 O   0  0  0  0  0  0
   -6.8941   -3.3655   11.5128 H   0  0  0  0  0  0
   -7.7849   -5.6733   13.3078 H   0  0  0  0  0  0
   -7.9035   -6.1754   10.9265 H   0  0  0  0  0  0
   -5.0568   -4.8873   10.8999 H   0  0  0  0  0  0
   -5.6481   -6.1062   12.0260 H   0  0  0  0  0  0
   -9.2776   -3.0344   12.9639 H   0  0  0  0  0  0
   -9.7554   -4.4047   13.9421 H   0  0  0  0  0  0
   -6.4695   -5.8047    9.0775 H   0  0  0  0  0  0
   -6.8841   -4.0914    8.9645 H   0  0  0  0  0  0
   -4.6061   -3.3112   12.7057 H   0  0  0  0  0  0
   -3.7973   -4.8395   13.0065 H   0  0  0  0  0  0
   -7.8616   -5.4829   15.5894 H   0  0  0  0  0  0
   -8.5832   -3.8927   15.7946 H   0  0  0  0  0  0
   -6.2823   -1.9803   15.0264 H   0  0  0  0  0  0
   -7.9459   -1.9987   14.4530 H   0  0  0  0  0  0
   -6.6105   -2.0300   13.2992 H   0  0  0  0  0  0
  -10.9957   -4.3107   11.7932 H   0  0  0  0  0  0
  -10.1144   -5.8099   12.0478 H   0  0  0  0  0  0
  -10.4445   -4.5673    8.6718 H   0  0  0  0  0  0
  -10.2869   -2.6389   10.1036 H   0  0  0  0  0  0
   -8.7691   -2.7769    9.2228 H   0  0  0  0  0  0
   -8.7554   -2.4004   10.9385 H   0  0  0  0  0  0
   -8.3761   -6.4280    7.9045 H   0  0  0  0  0  0
   -8.5284   -4.7286    7.4956 H   0  0  0  0  0  0
   -3.7969   -5.2226   15.3239 H   0  0  0  0  0  0
   -7.2721   -4.6299   17.7560 H   0  0  0  0  0  0
   -6.6147   -3.1241   17.0886 H   0  0  0  0  0  0
  -10.5478   -6.8352    8.7278 H   0  0  0  0  0  0
  1  2  1  0  0  0
  1  3  1  0  0  0
  1  4  1  0  0  0
  1 22  1  0  0  0
  2  5  1  0  0  0
  2  6  1  0  0  0
  2 23  1  0  0  0
  3  7  1  0  0  0
  3  8  1  0  0  0
  3 24  1  0  0  0
  4  9  1  0  0  0
  4 25  1  0  0  0
  4 26  1  0  0  0
  5 10  1  0  0  0
  5 11  1  0  0  0
  5 12  1  0  0  0
  6 13  1  0  0  0
  6 27  1  0  0  0
  6 28  1  0  0  0
  7 13  1  0  0  0
  7 14  1  0  0  0
  7 15  1  0  0  0
  8 16  1  0  0  0
  8 29  1  0  0  0
  8 30  1  0  0  0
  9 10  1  0  0  0
  9 31  1  0  0  0
  9 32  1  0  0  0
 10 17  2  0  0  0
 11 18  1  0  0  0
 11 33  1  0  0  0
 11 34  1  0  0  0
 12 35  1  0  0  0
 12 36  1  0  0  0
 12 37  1  0  0  0
 13 38  1  0  0  0
 13 39  1  0  0  0
 14 16  1  0  0  0
 14 19  1  0  0  0
 14 40  1  0  0  0
 15 41  1  0  0  0
 15 42  1  0  0  0
 15 43  1  0  0  0
 16 44  1  0  0  0
 16 45  1  0  0  0
 17 20  1  0  0  0
 17 46  1  0  0  0
 18 20  1  0  0  0
 18 47  1  0  0  0
 18 48  1  0  0  0
 19 49  1  0  0  0
 20 21  2  0  0  0
M  END
>  <Name>
tox-267

>  <substance>
Epitestosterone

>  <CASRN>
481-30-1

>  <from_NCI>
1

>  <RBA>
0.000000

>  <method>
RUC

>  <chemical_class>
Steroid, nonphenolic

>  <set>
0

$$$$
tox-268
  Cerius2 12190218263D 1   1.00000                          
 Structure written by MMmdl.
 38 41  0  0  0  0  0  0  0  0999 V2000
   -7.8547   -5.2406   10.6357 C   0  0  0  0  0  0
   -7.0480   -4.9890   11.8802 C   0  0  0  0  0  0
   -9.1365   -4.3842   10.6037 C   0  0  0  0  0  0
   -7.2619   -5.0707    9.2376 C   0  0  0  0  0  0
   -7.7276   -4.7374   13.1009 C   0  0  0  0  0  0
   -5.6559   -5.0842   11.8704 C   0  0  0  0  0  0
   -9.9866   -4.8315   11.7856 C   0  0  0  0  0  0
   -9.6335   -4.7810    9.2241 C   0  0  0  0  0  0
   -8.4880   -5.2172    8.3269 C   0  0  0  0  0  0
   -6.9805   -4.5596   14.3065 C   0  0  0  0  0  0
   -9.2514   -4.5950   13.1182 C   0  0  0  0  0  0
   -4.9309   -4.9123   13.0484 C   0  0  0  0  0  0
  -10.8058   -4.7347    8.8591 O   0  0  0  0  0  0
   -5.5736   -4.6511   14.2672 C   0  0  0  0  0  0
   -7.5588   -4.2895   15.5614 C   0  0  0  0  0  0
   -4.8181   -4.4788   15.4531 C   0  0  0  0  0  0
   -6.7770   -4.1233   16.7195 C   0  0  0  0  0  0
   -5.3778   -4.2108   16.7180 C   0  0  0  0  0  0
   -4.6752   -4.0606   17.7671 O   0  0  0  0  0  0
   -8.9231   -2.8590   10.5867 C   0  0  0  0  0  0
   -8.1367   -6.3059   10.7065 H   0  0  0  0  0  0
   -6.5053   -5.8273    9.0051 H   0  0  0  0  0  0
   -6.7932   -4.0880    9.1120 H   0  0  0  0  0  0
   -5.1138   -5.3012   10.9518 H   0  0  0  0  0  0
  -10.2225   -5.9003   11.6905 H   0  0  0  0  0  0
  -10.9563   -4.3190   11.7977 H   0  0  0  0  0  0
   -8.6427   -6.2611    8.0394 H   0  0  0  0  0  0
   -8.4140   -4.5768    7.4454 H   0  0  0  0  0  0
   -9.4809   -3.5735   13.4485 H   0  0  0  0  0  0
   -9.6705   -5.2853   13.8601 H   0  0  0  0  0  0
   -3.8444   -4.9904   13.0058 H   0  0  0  0  0  0
   -8.6385   -4.2009   15.6725 H   0  0  0  0  0  0
   -3.7284   -4.5590   15.3774 H   0  0  0  0  0  0
   -7.3059   -3.9167   17.6546 H   0  0  0  0  0  0
   -9.8904   -2.3426   10.5914 H   0  0  0  0  0  0
   -8.3979   -2.5230    9.6859 H   0  0  0  0  0  0
   -8.3546   -2.4999   11.4491 H   0  0  0  0  0  0
   -3.8525   -4.1479   17.5720 H   0  0  0  0  0  0
  1  2  1  0  0  0
  1  3  1  0  0  0
  1  4  1  0  0  0
  1 21  1  0  0  0
  2  5  2  0  0  0
  2  6  1  0  0  0
  3  7  1  0  0  0
  3  8  1  0  0  0
  3 20  1  0  0  0
  4  9  1  0  0  0
  4 22  1  0  0  0
  4 23  1  0  0  0
  5 10  1  0  0  0
  5 11  1  0  0  0
  6 12  2  0  0  0
  6 24  1  0  0  0
  7 11  1  0  0  0
  7 25  1  0  0  0
  7 26  1  0  0  0
  8  9  1  0  0  0
  8 13  2  0  0  0
  9 27  1  0  0  0
  9 28  1  0  0  0
 10 14  2  0  0  0
 10 15  1  0  0  0
 11 29  1  0  0  0
 11 30  1  0  0  0
 12 14  1  0  0  0
 12 31  1  0  0  0
 14 16  1  0  0  0
 15 17  2  0  0  0
 15 32  1  0  0  0
 16 18  2  0  0  0
 16 33  1  0  0  0
 17 18  1  0  0  0
 17 34  1  0  0  0
 18 19  1  0  0  0
 19 38  1  0  0  0
 20 35  1  0  0  0
 20 36  1  0  0  0
 20 37  1  0  0  0
M  END
>  <Name>
tox-268

>  <substance>
Equilenin

>  <CASRN>
517-09-9

>  <from_NCI>
1

>  <RBA>
8.000000

>  <method>
RBC

>  <chemical_class>
Steroid, phenolic

>  <set>
1

$$$$
tox-269
  Cerius2 12190218263D 1   1.00000                          
 Structure written by MMmdl.
 40 43  0  0  0  0  0  0  0  0999 V2000
   -7.9505   -5.3306   10.6488 C   0  0  0  0  0  0
   -7.0652   -5.0390   11.8303 C   0  0  0  0  0  0
   -9.0354   -4.2384   10.5201 C   0  0  0  0  0  0
   -7.4147   -5.4893    9.2262 C   0  0  0  0  0  0
   -7.8399   -5.0346   13.1501 C   0  0  0  0  0  0
   -5.7481   -4.7914   11.7551 C   0  0  0  0  0  0
   -9.9129   -4.2892   11.7730 C   0  0  0  0  0  0
   -9.6758   -4.7135    9.2252 C   0  0  0  0  0  0
   -8.6981   -5.5191    8.3850 C   0  0  0  0  0  0
   -6.9832   -4.7303   14.3732 C   0  0  0  0  0  0
   -9.0748   -4.0936   13.0541 C   0  0  0  0  0  0
   -4.8915   -4.4685   12.9411 C   0  0  0  0  0  0
  -10.8286   -4.4661    8.8790 O   0  0  0  0  0  0
   -5.6115   -4.4672   14.2704 C   0  0  0  0  0  0
   -7.5479   -4.7511   15.6538 C   0  0  0  0  0  0
   -4.8582   -4.2006   15.4404 C   0  0  0  0  0  0
   -6.7724   -4.4848   16.7955 C   0  0  0  0  0  0
   -5.3995   -4.1940   16.7406 C   0  0  0  0  0  0
   -4.7032   -3.9517   17.7766 O   0  0  0  0  0  0
   -8.5028   -2.8139   10.2698 C   0  0  0  0  0  0
   -8.4370   -6.2945   10.8792 H   0  0  0  0  0  0
   -6.8327   -6.4080    9.0998 H   0  0  0  0  0  0
   -6.7782   -4.6490    8.9276 H   0  0  0  0  0  0
   -8.2110   -6.0609   13.2909 H   0  0  0  0  0  0
   -5.2342   -4.8010   10.7966 H   0  0  0  0  0  0
  -10.4345   -5.2537   11.8281 H   0  0  0  0  0  0
  -10.6980   -3.5249   11.7267 H   0  0  0  0  0  0
   -9.0783   -6.5395    8.2822 H   0  0  0  0  0  0
   -8.5492   -5.0581    7.4064 H   0  0  0  0  0  0
   -8.7467   -3.0477   13.1159 H   0  0  0  0  0  0
   -9.7371   -4.2498   13.9142 H   0  0  0  0  0  0
   -4.4455   -3.4790   12.7835 H   0  0  0  0  0  0
   -4.0787   -5.2038   12.9848 H   0  0  0  0  0  0
   -8.6038   -4.9821   15.7904 H   0  0  0  0  0  0
   -3.7901   -3.9931   15.3160 H   0  0  0  0  0  0
   -7.2807   -4.5131   17.7637 H   0  0  0  0  0  0
   -9.3353   -2.1021   10.2148 H   0  0  0  0  0  0
   -7.9645   -2.7312    9.3193 H   0  0  0  0  0  0
   -7.8281   -2.4718   11.0598 H   0  0  0  0  0  0
   -3.8990   -3.7988   17.5481 H   0  0  0  0  0  0
  1  2  1  0  0  0
  1  3  1  0  0  0
  1  4  1  0  0  0
  1 21  1  0  0  0
  2  5  1  0  0  0
  2  6  2  0  0  0
  3  7  1  0  0  0
  3  8  1  0  0  0
  3 20  1  0  0  0
  4  9  1  0  0  0
  4 22  1  0  0  0
  4 23  1  0  0  0
  5 10  1  0  0  0
  5 11  1  0  0  0
  5 24  1  0  0  0
  6 12  1  0  0  0
  6 25  1  0  0  0
  7 11  1  0  0  0
  7 26  1  0  0  0
  7 27  1  0  0  0
  8  9  1  0  0  0
  8 13  2  0  0  0
  9 28  1  0  0  0
  9 29  1  0  0  0
 10 14  2  0  0  0
 10 15  1  0  0  0
 11 30  1  0  0  0
 11 31  1  0  0  0
 12 14  1  0  0  0
 12 32  1  0  0  0
 12 33  1  0  0  0
 14 16  1  0  0  0
 15 17  2  0  0  0
 15 34  1  0  0  0
 16 18  2  0  0  0
 16 35  1  0  0  0
 17 18  1  0  0  0
 17 36  1  0  0  0
 18 19  1  0  0  0
 19 40  1  0  0  0
 20 37  1  0  0  0
 20 38  1  0  0  0
 20 39  1  0  0  0
M  END
>  <Name>
tox-269

>  <substance>
Equilin

>  <CASRN>
474-86-2

>  <from_NCI>
1

>  <RBA>
24.000000

>  <method>
RBC

>  <chemical_class>
Steroid, phenolic

>  <set>
1

$$$$
tox-270
  Cerius2 12190218263D 1   1.00000                          
 Structure written by MMmdl.
 32 34  0  0  0  0  0  0  0  0999 V2000
    0.5243    0.6327    0.1529 C   0  0  0  0  0  0
    0.3176    1.1158   -1.2868 C   0  0  0  0  0  0
   -0.8476    1.9496   -1.4152 O   0  0  0  0  0  0
   -0.6770   -0.2384    0.5398 C   0  0  0  0  0  0
   -1.9625    0.4157    0.1123 C   0  0  0  0  0  0
   -1.9774    1.4423   -0.8281 C   0  0  0  0  0  0
   -3.1907    2.0474   -1.2000 C   0  0  0  0  0  0
   -4.4431    1.6510   -0.6869 C   0  0  0  0  0  0
   -4.3835    0.5939    0.2412 C   0  0  0  0  0  0
   -3.1806   -0.0159    0.6367 C   0  0  0  0  0  0
    1.8450   -0.0815    0.3638 C   0  0  0  0  0  0
    2.2279   -1.1843   -0.4014 C   0  0  0  0  0  0
    3.4610   -1.8231   -0.1760 C   0  0  0  0  0  0
    4.3756   -1.4118    0.8115 C   0  0  0  0  0  0
    3.9542   -0.3008    1.5651 C   0  0  0  0  0  0
    2.7260    0.3521    1.3563 C   0  0  0  0  0  0
    5.4882   -1.9957    1.0070 O   0  0  0  0  0  0
   -5.5358    2.2011   -1.0344 O   0  0  0  0  0  0
    0.5011    1.5258    0.7952 H   0  0  0  0  0  0
    0.2301    0.2854   -1.9993 H   0  0  0  0  0  0
    1.1737    1.7206   -1.6078 H   0  0  0  0  0  0
   -0.6778   -0.3994    1.6253 H   0  0  0  0  0  0
   -0.6225   -1.2242    0.0610 H   0  0  0  0  0  0
   -3.1468    2.8611   -1.9292 H   0  0  0  0  0  0
   -5.3074    0.2166    0.6898 H   0  0  0  0  0  0
   -3.2126   -0.8271    1.3634 H   0  0  0  0  0  0
    1.5790   -1.5740   -1.1847 H   0  0  0  0  0  0
    3.7023   -2.6816   -0.8100 H   0  0  0  0  0  0
    4.5996    0.0897    2.3576 H   0  0  0  0  0  0
    2.4761    1.2056    1.9862 H   0  0  0  0  0  0
    5.9034   -1.6096    1.6403 H   0  0  0  0  0  0
   -6.1820    1.8320   -0.6236 H   0  0  0  0  0  0
  1  2  1  0  0  0
  1  4  1  0  0  0
  1 11  1  0  0  0
  1 19  1  0  0  0
  2  3  1  0  0  0
  2 20  1  0  0  0
  2 21  1  0  0  0
  3  6  1  0  0  0
  4  5  1  0  0  0
  4 22  1  0  0  0
  4 23  1  0  0  0
  5  6  2  0  0  0
  5 10  1  0  0  0
  6  7  1  0  0  0
  7  8  2  0  0  0
  7 24  1  0  0  0
  8  9  1  0  0  0
  8 18  1  0  0  0
  9 10  2  0  0  0
  9 25  1  0  0  0
 10 26  1  0  0  0
 11 12  2  0  0  0
 11 16  1  0  0  0
 12 13  1  0  0  0
 12 27  1  0  0  0
 13 14  2  0  0  0
 13 28  1  0  0  0
 14 15  1  0  0  0
 14 17  1  0  0  0
 15 16  2  0  0  0
 15 29  1  0  0  0
 16 30  1  0  0  0
 17 31  1  0  0  0
 18 32  1  0  0  0
M  END
>  <Name>
tox-270

>  <substance>
Equol

>  <CASRN>
531-95-3

>  <from_NCI>
1

>  <RBA>
0.200000

>  <method>
hERa,RUC

>  <chemical_class>
Isoflavone

>  <set>
2

$$$$
tox-271
  Cerius2 12190218263D 1   1.00000                          
 Structure written by MMmdl.
 39 40  0  0  0  0  0  0  0  0999 V2000
    0.6765    0.4275   -0.0086 C   0  0  0  0  0  0
   -0.6299   -0.4223    0.1617 C   0  0  0  0  0  0
   -1.9032    0.4199    0.1028 C   0  0  0  0  0  0
   -2.2380    1.1719   -1.0352 C   0  0  0  0  0  0
   -3.4072    1.9356   -1.0646 C   0  0  0  0  0  0
   -4.2487    1.9505    0.0408 C   0  0  0  0  0  0
   -5.3808    2.7080   -0.0252 O   0  0  0  0  0  0
   -3.9410    1.2122    1.1776 C   0  0  0  0  0  0
   -2.7712    0.4482    1.2071 C   0  0  0  0  0  0
    1.9291   -0.4495    0.0091 C   0  0  0  0  0  0
    2.7441   -0.5219   -1.1327 C   0  0  0  0  0  0
    3.8918   -1.3177   -1.1388 C   0  0  0  0  0  0
    4.2313   -2.0451   -0.0048 C   0  0  0  0  0  0
    5.3591   -2.8107   -0.0481 O   0  0  0  0  0  0
    3.4410   -1.9904    1.1374 C   0  0  0  0  0  0
    2.2925   -1.1943    1.1436 C   0  0  0  0  0  0
    0.7776    1.5505    1.0585 C   0  0  0  0  0  0
    1.9608    2.4887    0.8410 C   0  0  0  0  0  0
   -0.7377   -1.5505   -0.8803 C   0  0  0  0  0  0
    0.6284    0.9243   -0.9878 H   0  0  0  0  0  0
   -0.5937   -0.9082    1.1465 H   0  0  0  0  0  0
   -1.5917    1.1704   -1.9117 H   0  0  0  0  0  0
   -3.6538    2.5141   -1.9520 H   0  0  0  0  0  0
   -5.8645    2.6147    0.8233 H   0  0  0  0  0  0
   -4.5947    1.2176    2.0467 H   0  0  0  0  0  0
   -2.5419   -0.1256    2.1046 H   0  0  0  0  0  0
    2.4909    0.0423   -2.0295 H   0  0  0  0  0  0
    4.5138   -1.3644   -2.0297 H   0  0  0  0  0  0
    5.4620   -3.2576    0.8193 H   0  0  0  0  0  0
    3.6999   -2.5570    2.0288 H   0  0  0  0  0  0
    1.6835   -1.1623    2.0460 H   0  0  0  0  0  0
    0.8382    1.1244    2.0670 H   0  0  0  0  0  0
   -0.1277    2.1672    1.0369 H   0  0  0  0  0  0
    1.9255    3.3084    1.5660 H   0  0  0  0  0  0
    1.9355    2.9247   -0.1627 H   0  0  0  0  0  0
    2.9169    1.9738    0.9724 H   0  0  0  0  0  0
   -1.6911   -2.0832   -0.7844 H   0  0  0  0  0  0
    0.0571   -2.2918   -0.7519 H   0  0  0  0  0  0
   -0.6736   -1.1643   -1.9036 H   0  0  0  0  0  0
  1  2  1  0  0  0
  1 10  1  0  0  0
  1 17  1  0  0  0
  1 20  1  0  0  0
  2  3  1  0  0  0
  2 19  1  0  0  0
  2 21  1  0  0  0
  3  4  2  0  0  0
  3  9  1  0  0  0
  4  5  1  0  0  0
  4 22  1  0  0  0
  5  6  2  0  0  0
  5 23  1  0  0  0
  6  7  1  0  0  0
  6  8  1  0  0  0
  7 24  1  0  0  0
  8  9  2  0  0  0
  8 25  1  0  0  0
  9 26  1  0  0  0
 10 11  2  0  0  0
 10 16  1  0  0  0
 11 12  1  0  0  0
 11 27  1  0  0  0
 12 13  2  0  0  0
 12 28  1  0  0  0
 13 14  1  0  0  0
 13 15  1  0  0  0
 14 29  1  0  0  0
 15 16  2  0  0  0
 15 30  1  0  0  0
 16 31  1  0  0  0
 17 18  1  0  0  0
 17 32  1  0  0  0
 17 33  1  0  0  0
 18 34  1  0  0  0
 18 35  1  0  0  0
 18 36  1  0  0  0
 19 37  1  0  0  0
 19 38  1  0  0  0
 19 39  1  0  0  0
M  END
>  <Name>
tox-271

>  <substance>
Erythro -MEA

>  <CASRN>
20576-52-7

>  <from_NCI>
0

>  <RBA>
135.000000

>  <method>
RBC

>  <chemical_class>
Bisphenol

>  <set>
1

$$$$
tox-272
  Cerius2 12190218263D 1   1.00000                          
 Structure written by MMmdl.
 44 47  0  0  0  0  0  0  0  0999 V2000
   -4.2806   -0.7069   -0.2876 C   0  0  0  0  0  0
   -4.2093   -1.9513   -0.9326 C   0  0  0  0  0  0
   -2.9184   -2.2983   -1.3722 C   0  0  0  0  0  0
   -3.1626    0.1229   -0.0850 C   0  0  0  0  0  0
   -1.8869   -0.2580   -0.5132 C   0  0  0  0  0  0
   -1.7746   -1.4817   -1.1925 C   0  0  0  0  0  0
   -0.4494   -2.0012   -1.7035 C   0  0  0  0  0  0
    0.6589   -0.9516   -1.7389 C   0  0  0  0  0  0
   -0.6770    0.6565   -0.3418 C   0  0  0  0  0  0
    0.6566   -0.1465   -0.4374 C   0  0  0  0  0  0
    0.5585    2.4216    1.0921 C   0  0  0  0  0  0
   -0.7044    1.5541    0.9243 C   0  0  0  0  0  0
    1.8425    1.5871    0.9973 C   0  0  0  0  0  0
    1.8258    0.8366   -0.3466 C   0  0  0  0  0  0
    3.2596    0.3186   -0.4934 C   0  0  0  0  0  0
    4.1563    1.4108    0.1765 C   0  0  0  0  0  0
    3.1397    2.4038    0.8307 C   0  0  0  0  0  0
    1.9660    0.6865    2.2507 C   0  0  0  0  0  0
    4.8521    2.0497   -0.7461 O   0  0  0  0  0  0
   -5.2233   -2.6982   -1.1078 O   0  0  0  0  0  0
   -5.2449   -0.3443    0.0808 H   0  0  0  0  0  0
   -2.7803   -3.2551   -1.8869 H   0  0  0  0  0  0
   -3.3302    1.0766    0.4114 H   0  0  0  0  0  0
   -0.5764   -2.4105   -2.7130 H   0  0  0  0  0  0
   -0.1390   -2.8264   -1.0498 H   0  0  0  0  0  0
    0.5109   -0.2813   -2.5955 H   0  0  0  0  0  0
    1.6188   -1.4570   -1.8917 H   0  0  0  0  0  0
   -0.7145    1.3401   -1.2042 H   0  0  0  0  0  0
    0.7154   -0.8621    0.3930 H   0  0  0  0  0  0
    0.5141    2.9556    2.0489 H   0  0  0  0  0  0
    0.5544    3.1916    0.3094 H   0  0  0  0  0  0
   -0.8529    0.9329    1.8157 H   0  0  0  0  0  0
   -1.5610    2.2371    0.8844 H   0  0  0  0  0  0
    1.6884    1.5723   -1.1566 H   0  0  0  0  0  0
    3.5069    0.1167   -1.5435 H   0  0  0  0  0  0
    3.3762   -0.6320    0.0430 H   0  0  0  0  0  0
    4.6806    0.9076    1.0017 H   0  0  0  0  0  0
    3.5184    2.7832    1.7880 H   0  0  0  0  0  0
    2.9489    3.2835    0.1981 H   0  0  0  0  0  0
    2.8536    0.0475    2.2256 H   0  0  0  0  0  0
    1.1051    0.0263    2.3848 H   0  0  0  0  0  0
    2.0413    1.3038    3.1537 H   0  0  0  0  0  0
    5.3371    2.6416   -0.3760 H   0  0  0  0  0  0
   -4.9868   -3.4063   -1.5141 H   0  0  0  0  0  0
  1  2  2  0  0  0
  1  4  1  0  0  0
  1 21  1  0  0  0
  2  3  1  0  0  0
  2 20  1  0  0  0
  3  6  2  0  0  0
  3 22  1  0  0  0
  4  5  2  0  0  0
  4 23  1  0  0  0
  5  6  1  0  0  0
  5  9  1  0  0  0
  6  7  1  0  0  0
  7  8  1  0  0  0
  7 24  1  0  0  0
  7 25  1  0  0  0
  8 10  1  0  0  0
  8 26  1  0  0  0
  8 27  1  0  0  0
  9 10  1  0  0  0
  9 12  1  0  0  0
  9 28  1  0  0  0
 10 14  1  0  0  0
 10 29  1  0  0  0
 11 12  1  0  0  0
 11 13  1  0  0  0
 11 30  1  0  0  0
 11 31  1  0  0  0
 12 32  1  0  0  0
 12 33  1  0  0  0
 13 14  1  0  0  0
 13 17  1  0  0  0
 13 18  1  0  0  0
 14 15  1  0  0  0
 14 34  1  0  0  0
 15 16  1  0  0  0
 15 35  1  0  0  0
 15 36  1  0  0  0
 16 17  1  0  0  0
 16 19  1  0  0  0
 16 37  1  0  0  0
 17 38  1  0  0  0
 17 39  1  0  0  0
 18 40  1  0  0  0
 18 41  1  0  0  0
 18 42  1  0  0  0
 19 43  1  0  0  0
 20 44  1  0  0  0
M  END
>  <Name>
tox-272

>  <substance>
16a-Estradiol

>  <CASRN>
1090-04-6

>  <from_NCI>
1

>  <RBA>
34.000000

>  <method>
MCF-7 cytosol,MCF-7 cytosol,RBC

>  <chemical_class>
Steroid, phenolic

>  <set>
2

$$$$
tox-273
  Cerius2 12190218263D 1   1.00000                          
 Structure written by MMmdl.
 44 47  0  0  0  0  0  0  0  0999 V2000
    2.2488    0.1407   -0.4974 C   0  0  0  0  0  0
    0.8969   -0.5583   -0.3153 C   0  0  0  0  0  0
    2.3489    1.4694    0.2949 C   0  0  0  0  0  0
    3.5109   -0.6087   -0.0914 C   0  0  0  0  0  0
   -0.2346    0.3807   -0.8302 C   0  0  0  0  0  0
    0.8187   -1.8896   -1.0683 C   0  0  0  0  0  0
    1.2353    2.4140   -0.2110 C   0  0  0  0  0  0
    3.8610    1.8868    0.0829 C   0  0  0  0  0  0
    4.5842    0.4943    0.0381 C   0  0  0  0  0  0
   -1.5981   -0.3033   -0.7619 C   0  0  0  0  0  0
   -0.1635    1.7689   -0.1433 C   0  0  0  0  0  0
   -0.4886   -2.6025   -0.7323 C   0  0  0  0  0  0
    4.0851    2.5035   -1.0698 O   0  0  0  0  0  0
   -1.7037   -1.7034   -0.7597 C   0  0  0  0  0  0
   -2.7897    0.4285   -0.7905 C   0  0  0  0  0  0
   -2.9806   -2.3167   -0.7313 C   0  0  0  0  0  0
   -4.0428   -0.2112   -0.7715 C   0  0  0  0  0  0
   -4.1949   -1.6058   -0.7358 C   0  0  0  0  0  0
   -5.3306   -2.1771   -0.7138 O   0  0  0  0  0  0
    2.1443    1.2792    1.8340 C   0  0  0  0  0  0
    2.3488    0.3635   -1.5718 H   0  0  0  0  0  0
    0.7378   -0.7761    0.7485 H   0  0  0  0  0  0
    3.8042   -1.3533   -0.8385 H   0  0  0  0  0  0
    3.3813   -1.1328    0.8619 H   0  0  0  0  0  0
   -0.0584    0.5559   -1.9030 H   0  0  0  0  0  0
    1.6552   -2.5460   -0.8042 H   0  0  0  0  0  0
    0.8804   -1.7131   -2.1500 H   0  0  0  0  0  0
    1.4179    2.6914   -1.2567 H   0  0  0  0  0  0
    1.2361    3.3491    0.3622 H   0  0  0  0  0  0
    4.1999    2.3828    1.0044 H   0  0  0  0  0  0
    5.3190    0.4081   -0.7739 H   0  0  0  0  0  0
    5.1422    0.3349    0.9701 H   0  0  0  0  0  0
   -0.4932    1.6876    0.8991 H   0  0  0  0  0  0
   -0.8590    2.4656   -0.6256 H   0  0  0  0  0  0
   -0.4129   -3.0330    0.2745 H   0  0  0  0  0  0
   -0.6256   -3.4324   -1.4361 H   0  0  0  0  0  0
   -2.7838    1.5157   -0.8360 H   0  0  0  0  0  0
   -3.0150   -3.4111   -0.7063 H   0  0  0  0  0  0
   -4.9303    0.4284   -0.7891 H   0  0  0  0  0  0
    2.2245    2.2461    2.3453 H   0  0  0  0  0  0
    2.8988    0.6215    2.2772 H   0  0  0  0  0  0
    1.1678    0.8629    2.0916 H   0  0  0  0  0  0
    4.9092    2.7030   -1.1288 H   0  0  0  0  0  0
   -5.9440   -1.5887   -0.7209 H   0  0  0  0  0  0
  1  2  1  0  0  0
  1  3  1  0  0  0
  1  4  1  0  0  0
  1 21  1  0  0  0
  2  5  1  0  0  0
  2  6  1  0  0  0
  2 22  1  0  0  0
  3  7  1  0  0  0
  3  8  1  0  0  0
  3 20  1  0  0  0
  4  9  1  0  0  0
  4 23  1  0  0  0
  4 24  1  0  0  0
  5 10  1  0  0  0
  5 11  1  0  0  0
  5 25  1  0  0  0
  6 12  1  0  0  0
  6 26  1  0  0  0
  6 27  1  0  0  0
  7 11  1  0  0  0
  7 28  1  0  0  0
  7 29  1  0  0  0
  8  9  1  0  0  0
  8 13  1  0  0  0
  8 30  1  0  0  0
  9 31  1  0  0  0
  9 32  1  0  0  0
 10 14  2  0  0  0
 10 15  1  0  0  0
 11 33  1  0  0  0
 11 34  1  0  0  0
 12 14  1  0  0  0
 12 35  1  0  0  0
 12 36  1  0  0  0
 13 43  1  0  0  0
 14 16  1  0  0  0
 15 17  2  0  0  0
 15 37  1  0  0  0
 16 18  2  0  0  0
 16 38  1  0  0  0
 17 18  1  0  0  0
 17 39  1  0  0  0
 18 19  1  0  0  0
 19 44  1  0  0  0
 20 40  1  0  0  0
 20 41  1  0  0  0
 20 42  1  0  0  0
M  END
>  <Name>
tox-273

>  <substance>
17a-Estradiol

>  <CASRN>
57-91-0

>  <from_NCI>
1

>  <RBA>
28.000000

>  <method>
hERa,hERa,MCF-7 cytosol,RBC,RUC,RUC

>  <chemical_class>
Steroid, phenolic

>  <set>
0

$$$$
tox-274
  Cerius2 12190218263D 1   1.00000                          
 Structure written by MMmdl.
 44 47  0  0  0  0  0  0  0  0999 V2000
    2.1236    0.3903    0.1205 C   0  0  0  0  0  0
    0.8118   -0.3981    0.1054 C   0  0  0  0  0  0
    1.9074    1.9297    0.1167 C   0  0  0  0  0  0
    3.1081    0.1676    1.2643 C   0  0  0  0  0  0
    0.0335   -0.0486   -1.1983 C   0  0  0  0  0  0
    1.0340   -1.9122    0.1585 C   0  0  0  0  0  0
    1.1615    2.2792   -1.1874 C   0  0  0  0  0  0
    3.4155    2.3850    0.1659 C   0  0  0  0  0  0
    1.0686    2.4223    1.3367 C   0  0  0  0  0  0
    4.0061    1.4249    1.2453 C   0  0  0  0  0  0
   -1.2481   -0.8697   -1.3136 C   0  0  0  0  0  0
   -0.1490    1.4840   -1.3490 C   0  0  0  0  0  0
   -0.3076   -2.6313    0.2783 C   0  0  0  0  0  0
    3.5983    3.6407    0.5376 O   0  0  0  0  0  0
   -1.3764   -2.1010   -0.6509 C   0  0  0  0  0  0
   -2.3000   -0.4781   -2.1478 C   0  0  0  0  0  0
   -2.5597   -2.8655   -0.8017 C   0  0  0  0  0  0
   -3.4585   -1.2651   -2.2833 C   0  0  0  0  0  0
   -3.6425   -2.4861   -1.6163 C   0  0  0  0  0  0
   -4.6943   -3.1899   -1.7402 O   0  0  0  0  0  0
    2.6632    0.1128   -0.8006 H   0  0  0  0  0  0
    0.2084   -0.1264    0.9806 H   0  0  0  0  0  0
    3.7008   -0.7417    1.1206 H   0  0  0  0  0  0
    2.5942    0.0801    2.2279 H   0  0  0  0  0  0
    0.6524   -0.3699   -2.0507 H   0  0  0  0  0  0
    1.6618   -2.1923    1.0116 H   0  0  0  0  0  0
    1.5572   -2.2471   -0.7465 H   0  0  0  0  0  0
    1.8041    2.0643   -2.0513 H   0  0  0  0  0  0
    0.9430    3.3531   -1.2264 H   0  0  0  0  0  0
    3.8615    2.0585   -0.7879 H   0  0  0  0  0  0
    0.9199    3.5074    1.2875 H   0  0  0  0  0  0
    1.5545    2.2037    2.2926 H   0  0  0  0  0  0
    0.0720    1.9760    1.3770 H   0  0  0  0  0  0
    5.0390    1.1563    0.9901 H   0  0  0  0  0  0
    4.0342    1.8616    2.2530 H   0  0  0  0  0  0
   -0.8966    1.8422   -0.6312 H   0  0  0  0  0  0
   -0.5461    1.7205   -2.3431 H   0  0  0  0  0  0
   -0.6772   -2.5285    1.3066 H   0  0  0  0  0  0
   -0.1500   -3.7002    0.0901 H   0  0  0  0  0  0
   -2.2512    0.4440   -2.7234 H   0  0  0  0  0  0
   -2.6262   -3.8082   -0.2482 H   0  0  0  0  0  0
   -4.2417   -0.8903   -2.9490 H   0  0  0  0  0  0
    4.4299    3.8167    0.5419 H   0  0  0  0  0  0
   -5.2340   -2.8019   -2.2700 H   0  0  0  0  0  0
  1  2  1  0  0  0
  1  3  1  0  0  0
  1  4  1  0  0  0
  1 21  1  0  0  0
  2  5  1  0  0  0
  2  6  1  0  0  0
  2 22  1  0  0  0
  3  7  1  0  0  0
  3  8  1  0  0  0
  3  9  1  0  0  0
  4 10  1  0  0  0
  4 23  1  0  0  0
  4 24  1  0  0  0
  5 11  1  0  0  0
  5 12  1  0  0  0
  5 25  1  0  0  0
  6 13  1  0  0  0
  6 26  1  0  0  0
  6 27  1  0  0  0
  7 12  1  0  0  0
  7 28  1  0  0  0
  7 29  1  0  0  0
  8 10  1  0  0  0
  8 14  1  0  0  0
  8 30  1  0  0  0
  9 31  1  0  0  0
  9 32  1  0  0  0
  9 33  1  0  0  0
 10 34  1  0  0  0
 10 35  1  0  0  0
 11 15  2  0  0  0
 11 16  1  0  0  0
 12 36  1  0  0  0
 12 37  1  0  0  0
 13 15  1  0  0  0
 13 38  1  0  0  0
 13 39  1  0  0  0
 14 43  1  0  0  0
 15 17  1  0  0  0
 16 18  2  0  0  0
 16 40  1  0  0  0
 17 19  2  0  0  0
 17 41  1  0  0  0
 18 19  1  0  0  0
 18 42  1  0  0  0
 19 20  1  0  0  0
 20 44  1  0  0  0
M  END
>  <Name>
tox-274

>  <substance>
17b-Estradiol

>  <CASRN>
50-28-2

>  <from_NCI>
1

>  <RBA>
100.000000

>  <method>
many

>  <chemical_class>
Steroid, phenolic

>  <set>
0

$$$$
tox-276
  Cerius2 12190218263D 1   1.00000                          
 Structure written by MMmdl.
 49 52  0  0  0  0  0  0  0  0999 V2000
   -5.3134   -0.9495   -0.7158 C   0  0  0  0  0  0
   -6.6069   -1.3607   -0.8431 O   0  0  0  0  0  0
   -5.0740    0.2799   -0.1236 C   0  0  0  0  0  0
   -3.7606    0.7319    0.0270 C   0  0  0  0  0  0
   -4.2584   -1.7315   -1.1682 C   0  0  0  0  0  0
   -2.9319   -1.2817   -1.0294 C   0  0  0  0  0  0
   -1.8276   -2.1876   -1.5239 C   0  0  0  0  0  0
   -0.4618   -1.5129   -1.6106 C   0  0  0  0  0  0
   -0.2045   -0.6953   -0.3433 C   0  0  0  0  0  0
    1.2066   -0.1076   -0.3004 C   0  0  0  0  0  0
    2.4070   -1.0417   -0.4071 C   0  0  0  0  0  0
    3.5744   -0.2129    0.1602 C   0  0  0  0  0  0
    2.9530    1.0669    0.7626 C   0  0  0  0  0  0
    1.4768    0.6694    1.0034 C   0  0  0  0  0  0
    1.3442   -0.1733    2.2985 C   0  0  0  0  0  0
    0.4976    1.8488    1.0665 C   0  0  0  0  0  0
   -0.9677    1.3859    0.9506 C   0  0  0  0  0  0
   -1.2348    0.4726   -0.2760 C   0  0  0  0  0  0
   -2.6678   -0.0446   -0.3994 C   0  0  0  0  0  0
    4.7379    2.1778    2.0373 C   0  0  0  0  0  0
    5.3001    2.6938    0.7477 C   0  0  0  0  0  0
    5.2737    2.4142    3.1214 O   0  0  0  0  0  0
    3.5983    1.4481    1.9912 O   0  0  0  0  0  0
   -6.6109   -2.2402   -1.2778 H   0  0  0  0  0  0
   -5.9014    0.8965    0.2204 H   0  0  0  0  0  0
   -3.6148    1.7104    0.4796 H   0  0  0  0  0  0
   -4.4516   -2.6961   -1.6349 H   0  0  0  0  0  0
   -2.0869   -2.5818   -2.5140 H   0  0  0  0  0  0
   -1.7615   -3.0409   -0.8367 H   0  0  0  0  0  0
   -0.4221   -0.8615   -2.4932 H   0  0  0  0  0  0
    0.3044   -2.2838   -1.7488 H   0  0  0  0  0  0
   -0.3495   -1.3643    0.5147 H   0  0  0  0  0  0
    1.2873    0.5916   -1.1495 H   0  0  0  0  0  0
    2.6010   -1.3444   -1.4412 H   0  0  0  0  0  0
    2.2623   -1.9533    0.1832 H   0  0  0  0  0  0
    4.2765    0.0474   -0.6390 H   0  0  0  0  0  0
    4.1359   -0.7885    0.9044 H   0  0  0  0  0  0
    2.9914    1.8866    0.0356 H   0  0  0  0  0  0
    1.5385    0.4449    3.1828 H   0  0  0  0  0  0
    2.0518   -1.0078    2.3291 H   0  0  0  0  0  0
    0.3453   -0.5981    2.4269 H   0  0  0  0  0  0
    0.7034    2.5497    0.2469 H   0  0  0  0  0  0
    0.6328    2.4153    1.9958 H   0  0  0  0  0  0
   -1.5845    2.2900    0.8907 H   0  0  0  0  0  0
   -1.2713    0.8705    1.8698 H   0  0  0  0  0  0
   -1.0832    1.1012   -1.1672 H   0  0  0  0  0  0
    4.6035    3.3932    0.2802 H   0  0  0  0  0  0
    5.5551    1.8716    0.0777 H   0  0  0  0  0  0
    6.2244    3.2411    0.9604 H   0  0  0  0  0  0
  1  2  1  0  0  0
  1  3  2  0  0  0
  1  5  1  0  0  0
  2 24  1  0  0  0
  3  4  1  0  0  0
  3 25  1  0  0  0
  4 19  2  0  0  0
  4 26  1  0  0  0
  5  6  2  0  0  0
  5 27  1  0  0  0
  6  7  1  0  0  0
  6 19  1  0  0  0
  7  8  1  0  0  0
  7 28  1  0  0  0
  7 29  1  0  0  0
  8  9  1  0  0  0
  8 30  1  0  0  0
  8 31  1  0  0  0
  9 10  1  0  0  0
  9 18  1  0  0  0
  9 32  1  0  0  0
 10 11  1  0  0  0
 10 14  1  0  0  0
 10 33  1  0  0  0
 11 12  1  0  0  0
 11 34  1  0  0  0
 11 35  1  0  0  0
 12 13  1  0  0  0
 12 36  1  0  0  0
 12 37  1  0  0  0
 13 14  1  0  0  0
 13 23  1  0  0  0
 13 38  1  0  0  0
 14 15  1  0  0  0
 14 16  1  0  0  0
 15 39  1  0  0  0
 15 40  1  0  0  0
 15 41  1  0  0  0
 16 17  1  0  0  0
 16 42  1  0  0  0
 16 43  1  0  0  0
 17 18  1  0  0  0
 17 44  1  0  0  0
 17 45  1  0  0  0
 18 19  1  0  0  0
 18 46  1  0  0  0
 20 21  1  0  0  0
 20 22  2  0  0  0
 20 23  1  0  0  0
 21 47  1  0  0  0
 21 48  1  0  0  0
 21 49  1  0  0  0
M  END
>  <Name>
tox-276

>  <substance>
Estradiol 17-acetate

>  <CASRN>


>  <from_NCI>
0

>  <RBA>
29.000000

>  <method>
RBC

>  <chemical_class>
Steroid, phenolic

>  <set>
1

$$$$
tox-277
  Cerius2 12190218263D 1   1.00000                          
 Structure written by MMmdl.
 49 52  0  0  0  0  0  0  0  0999 V2000
   -4.8310   -1.5433   -1.5367 C   0  0  0  0  0  0
   -6.1072   -2.3212   -1.4114 C   0  0  0  0  0  0
   -4.5318   -0.8545   -2.5078 O   0  0  0  0  0  0
   -4.0711   -1.7393   -0.3875 O   0  0  0  0  0  0
   -2.8556   -1.0557   -0.3998 C   0  0  0  0  0  0
   -2.7843    0.2172    0.1484 C   0  0  0  0  0  0
   -1.5540    0.8765    0.1822 C   0  0  0  0  0  0
   -1.7195   -1.6915   -0.8890 C   0  0  0  0  0  0
   -0.4800   -1.0294   -0.8653 C   0  0  0  0  0  0
    0.7226   -1.7707   -1.4011 C   0  0  0  0  0  0
    1.9510   -0.8912   -1.6133 C   0  0  0  0  0  0
    2.1542    0.0209   -0.4008 C   0  0  0  0  0  0
    3.4522    0.8275   -0.4844 C   0  0  0  0  0  0
    4.7742    0.0862   -0.6586 C   0  0  0  0  0  0
    5.8445    1.1002   -0.1968 C   0  0  0  0  0  0
    5.0798    2.3462    0.3489 C   0  0  0  0  0  0
    3.6943    1.7205    0.7644 C   0  0  0  0  0  0
    3.7546    0.8986    2.0892 C   0  0  0  0  0  0
    2.5225    2.7202    0.8390 C   0  0  0  0  0  0
    1.1496    2.0201    0.8535 C   0  0  0  0  0  0
    0.9543    1.0102   -0.3073 C   0  0  0  0  0  0
   -0.3815    0.2646   -0.3026 C   0  0  0  0  0  0
    5.7599    2.8859    1.3461 O   0  0  0  0  0  0
   -6.6729   -1.9681   -0.5455 H   0  0  0  0  0  0
   -5.8839   -3.3869   -1.3182 H   0  0  0  0  0  0
   -6.7132   -2.1689   -2.3091 H   0  0  0  0  0  0
   -3.6728    0.7027    0.5442 H   0  0  0  0  0  0
   -1.5353    1.8832    0.5943 H   0  0  0  0  0  0
   -1.7953   -2.7002   -1.2909 H   0  0  0  0  0  0
    0.4676   -2.2517   -2.3532 H   0  0  0  0  0  0
    0.9717   -2.5660   -0.6869 H   0  0  0  0  0  0
    1.8262   -0.2875   -2.5216 H   0  0  0  0  0  0
    2.8217   -1.5359   -1.7764 H   0  0  0  0  0  0
    2.1755   -0.6198    0.4896 H   0  0  0  0  0  0
    3.3547    1.4824   -1.3666 H   0  0  0  0  0  0
    4.9392   -0.2140   -1.6985 H   0  0  0  0  0  0
    4.8140   -0.8184   -0.0417 H   0  0  0  0  0  0
    6.4895    1.3883   -1.0366 H   0  0  0  0  0  0
    6.4939    0.6223    0.5494 H   0  0  0  0  0  0
    4.8764    2.9719   -0.5357 H   0  0  0  0  0  0
    3.9051    1.5640    2.9474 H   0  0  0  0  0  0
    4.5739    0.1730    2.0929 H   0  0  0  0  0  0
    2.8357    0.3419    2.2881 H   0  0  0  0  0  0
    2.5559    3.3962   -0.0254 H   0  0  0  0  0  0
    2.6175    3.3542    1.7288 H   0  0  0  0  0  0
    0.3905    2.8091    0.7992 H   0  0  0  0  0  0
    0.9952    1.5164    1.8152 H   0  0  0  0  0  0
    0.9413    1.6053   -1.2338 H   0  0  0  0  0  0
    5.3406    3.5640    1.6407 H   0  0  0  0  0  0
  1  2  1  0  0  0
  1  3  2  0  0  0
  1  4  1  0  0  0
  2 24  1  0  0  0
  2 25  1  0  0  0
  2 26  1  0  0  0
  4  5  1  0  0  0
  5  6  2  0  0  0
  5  8  1  0  0  0
  6  7  1  0  0  0
  6 27  1  0  0  0
  7 22  2  0  0  0
  7 28  1  0  0  0
  8  9  2  0  0  0
  8 29  1  0  0  0
  9 10  1  0  0  0
  9 22  1  0  0  0
 10 11  1  0  0  0
 10 30  1  0  0  0
 10 31  1  0  0  0
 11 12  1  0  0  0
 11 32  1  0  0  0
 11 33  1  0  0  0
 12 13  1  0  0  0
 12 21  1  0  0  0
 12 34  1  0  0  0
 13 14  1  0  0  0
 13 17  1  0  0  0
 13 35  1  0  0  0
 14 15  1  0  0  0
 14 36  1  0  0  0
 14 37  1  0  0  0
 15 16  1  0  0  0
 15 38  1  0  0  0
 15 39  1  0  0  0
 16 17  1  0  0  0
 16 23  1  0  0  0
 16 40  1  0  0  0
 17 18  1  0  0  0
 17 19  1  0  0  0
 18 41  1  0  0  0
 18 42  1  0  0  0
 18 43  1  0  0  0
 19 20  1  0  0  0
 19 44  1  0  0  0
 19 45  1  0  0  0
 20 21  1  0  0  0
 20 46  1  0  0  0
 20 47  1  0  0  0
 21 22  1  0  0  0
 21 48  1  0  0  0
 23 49  1  0  0  0
M  END
>  <Name>
tox-277

>  <substance>
17b-Estradiol 3-acetate

>  <CASRN>
4245-41-4

>  <from_NCI>
1

>  <RBA>
97.000000

>  <method>
RBC

>  <chemical_class>
Steroid, nonphenolic

>  <set>
2

$$$$
tox-278
  Cerius2 12190218263D 1   1.00000                          
 Structure written by MMmdl.
 56 60  0  0  0  0  0  0  0  0999 V2000
    2.9158    1.4062   -1.0853 C   0  0  0  0  0  0
    1.5793    2.2039   -1.0190 C   0  0  0  0  0  0
    4.0670    2.3794   -1.3622 C   0  0  0  0  0  0
    2.7948    0.3220   -2.1595 C   0  0  0  0  0  0
    0.3803    1.2708   -0.8370 C   0  0  0  0  0  0
    1.6706    3.3579    0.0127 C   0  0  0  0  0  0
    4.2221    3.4550   -0.2568 C   0  0  0  0  0  0
    5.4738    1.8135   -1.5042 C   0  0  0  0  0  0
    1.7399   -0.7003   -1.7487 C   0  0  0  0  0  0
    0.4633   -0.0872   -1.2230 C   0  0  0  0  0  0
   -0.8561    1.7611   -0.3724 C   0  0  0  0  0  0
    2.9053    4.2599   -0.1845 C   0  0  0  0  0  0
    5.5522    4.2004   -0.6818 C   0  0  0  0  0  0
    4.4801    2.8424    1.1592 C   0  0  0  0  0  0
    6.3982    3.0347   -1.3057 C   0  0  0  0  0  0
   -0.6545   -0.9270   -1.0800 C   0  0  0  0  0  0
   -1.9661    0.9245   -0.2410 C   0  0  0  0  0  0
    5.3687    5.1218   -1.6181 O   0  0  0  0  0  0
   -1.8457   -0.4167   -0.5756 C   0  0  0  0  0  0
   -2.9630   -1.2477   -0.4906 O   0  0  0  0  0  0
   -3.0944   -1.8765    0.7344 C   0  0  0  0  0  0
   -4.3116   -2.7393    0.7316 C   0  0  0  0  0  0
   -2.3477   -1.7668    1.6997 O   0  0  0  0  0  0
   -5.1411   -2.8736   -0.3913 C   0  0  0  0  0  0
   -4.6295   -3.4411    1.9039 C   0  0  0  0  0  0
   -6.2696   -3.6966   -0.3380 C   0  0  0  0  0  0
   -5.7583   -4.2624    1.9526 C   0  0  0  0  0  0
   -6.5769   -4.3893    0.8321 C   0  0  0  0  0  0
    3.0884    0.8985   -0.1277 H   0  0  0  0  0  0
    1.4246    2.6761   -2.0015 H   0  0  0  0  0  0
    3.8346    2.8838   -2.3137 H   0  0  0  0  0  0
    3.7475   -0.1977   -2.3097 H   0  0  0  0  0  0
    2.5228    0.7747   -3.1217 H   0  0  0  0  0  0
    1.6571    2.9511    1.0307 H   0  0  0  0  0  0
    0.7899    4.0059   -0.0645 H   0  0  0  0  0  0
    5.6352    1.3573   -2.4863 H   0  0  0  0  0  0
    5.6805    1.0481   -0.7481 H   0  0  0  0  0  0
    2.1524   -1.3437   -0.9609 H   0  0  0  0  0  0
    1.5166   -1.3391   -2.6118 H   0  0  0  0  0  0
   -0.9844    2.8100   -0.1134 H   0  0  0  0  0  0
    2.9520    4.9995    0.6240 H   0  0  0  0  0  0
    2.7534    4.8248   -1.1128 H   0  0  0  0  0  0
    6.0717    4.5019    0.2398 H   0  0  0  0  0  0
    4.5822    3.6434    1.9013 H   0  0  0  0  0  0
    5.4022    2.2537    1.1976 H   0  0  0  0  0  0
    3.6723    2.1919    1.5022 H   0  0  0  0  0  0
    6.8828    3.3040   -2.2540 H   0  0  0  0  0  0
    7.2084    2.7550   -0.6198 H   0  0  0  0  0  0
   -0.5933   -1.9758   -1.3644 H   0  0  0  0  0  0
   -2.9113    1.3261    0.1157 H   0  0  0  0  0  0
   -4.9287   -2.3475   -1.3196 H   0  0  0  0  0  0
   -4.0015   -3.3542    2.7893 H   0  0  0  0  0  0
   -6.9101   -3.7971   -1.2129 H   0  0  0  0  0  0
   -5.9982   -4.8036    2.8664 H   0  0  0  0  0  0
   -7.4568   -5.0296    0.8703 H   0  0  0  0  0  0
    6.1129    5.4872   -1.8057 H   0  0  0  0  0  0
  1  2  1  0  0  0
  1  3  1  0  0  0
  1  4  1  0  0  0
  1 29  1  0  0  0
  2  5  1  0  0  0
  2  6  1  0  0  0
  2 30  1  0  0  0
  3  7  1  0  0  0
  3  8  1  0  0  0
  3 31  1  0  0  0
  4  9  1  0  0  0
  4 32  1  0  0  0
  4 33  1  0  0  0
  5 10  2  0  0  0
  5 11  1  0  0  0
  6 12  1  0  0  0
  6 34  1  0  0  0
  6 35  1  0  0  0
  7 12  1  0  0  0
  7 13  1  0  0  0
  7 14  1  0  0  0
  8 15  1  0  0  0
  8 36  1  0  0  0
  8 37  1  0  0  0
  9 10  1  0  0  0
  9 38  1  0  0  0
  9 39  1  0  0  0
 10 16  1  0  0  0
 11 17  2  0  0  0
 11 40  1  0  0  0
 12 41  1  0  0  0
 12 42  1  0  0  0
 13 15  1  0  0  0
 13 18  1  0  0  0
 13 43  1  0  0  0
 14 44  1  0  0  0
 14 45  1  0  0  0
 14 46  1  0  0  0
 15 47  1  0  0  0
 15 48  1  0  0  0
 16 19  2  0  0  0
 16 49  1  0  0  0
 17 19  1  0  0  0
 17 50  1  0  0  0
 18 56  1  0  0  0
 19 20  1  0  0  0
 20 21  1  0  0  0
 21 22  1  0  0  0
 21 23  2  0  0  0
 22 24  2  0  0  0
 22 25  1  0  0  0
 24 26  1  0  0  0
 24 51  1  0  0  0
 25 27  2  0  0  0
 25 52  1  0  0  0
 26 28  2  0  0  0
 26 53  1  0  0  0
 27 28  1  0  0  0
 27 54  1  0  0  0
 28 55  1  0  0  0
M  END
>  <Name>
tox-278

>  <substance>
Estradiol benzoate

>  <CASRN>
50-50-0

>  <from_NCI>
1

>  <RBA>
11.000000

>  <method>
GST-hERadef,GST-mERadef

>  <chemical_class>
Steroid, nonphenolic

>  <set>
0

$$$$
tox-279
  Cerius2 12190218263D 1   1.00000                          
 Structure written by MMmdl.
 54 57  0  0  0  0  0  0  0  0999 V2000
   -3.6542   -0.0979   -0.3192 C   0  0  0  0  0  0
   -3.6494   -1.3563   -0.9043 C   0  0  0  0  0  0
   -2.4631   -1.9477   -1.3251 C   0  0  0  0  0  0
   -2.4413    0.5617   -0.1122 C   0  0  0  0  0  0
   -1.2160   -0.0244   -0.4855 C   0  0  0  0  0  0
   -1.2398   -1.2845   -1.1275 C   0  0  0  0  0  0
    0.0207   -1.9868   -1.5762 C   0  0  0  0  0  0
    1.2558   -1.0914   -1.6019 C   0  0  0  0  0  0
    0.1043    0.7238   -0.2978 C   0  0  0  0  0  0
    1.3177   -0.2547   -0.3225 C   0  0  0  0  0  0
    1.5224    2.3566    1.1236 C   0  0  0  0  0  0
    0.1618    1.6560    0.9422 C   0  0  0  0  0  0
    2.6873    1.3584    1.1004 C   0  0  0  0  0  0
    2.6071    0.5603   -0.2160 C   0  0  0  0  0  0
    3.9506   -0.1588   -0.2723 C   0  0  0  0  0  0
    4.9372    0.8481    0.3474 C   0  0  0  0  0  0
    4.0850    1.9996    0.9260 C   0  0  0  0  0  0
    4.6041    2.4705    2.1830 O   0  0  0  0  0  0
    2.6425    0.4927    2.3863 C   0  0  0  0  0  0
   -4.8609   -1.9994   -1.1563 O   0  0  0  0  0  0
   -5.2795   -2.8225   -0.1154 C   0  0  0  0  0  0
   -6.5847   -3.4566   -0.4948 C   0  0  0  0  0  0
   -4.6974   -3.0180    0.9476 O   0  0  0  0  0  0
    5.6047    3.3775    2.2815 C   0  0  0  0  0  0
    6.0467    3.6881    3.3889 O   0  0  0  0  0  0
    6.1295    3.9916    1.0194 C   0  0  0  0  0  0
   -4.5881    0.3761   -0.0274 H   0  0  0  0  0  0
   -2.4870   -2.9226   -1.8087 H   0  0  0  0  0  0
   -2.4780    1.5516    0.3378 H   0  0  0  0  0  0
   -0.1265   -2.4091   -2.5777 H   0  0  0  0  0  0
    0.2005   -2.8238   -0.8893 H   0  0  0  0  0  0
    1.2227   -0.4340   -2.4803 H   0  0  0  0  0  0
    2.1460   -1.7211   -1.7085 H   0  0  0  0  0  0
    0.1867    1.3779   -1.1798 H   0  0  0  0  0  0
    1.2499   -0.9468    0.5267 H   0  0  0  0  0  0
    1.5207    2.9284    2.0593 H   0  0  0  0  0  0
    1.6426    3.0901    0.3156 H   0  0  0  0  0  0
   -0.0900    1.0874    1.8455 H   0  0  0  0  0  0
   -0.5947    2.4448    0.8586 H   0  0  0  0  0  0
    2.6060    1.2717   -1.0588 H   0  0  0  0  0  0
    4.2366   -0.4147   -1.2976 H   0  0  0  0  0  0
    3.9355   -1.0874    0.3090 H   0  0  0  0  0  0
    5.6187    1.2304   -0.4200 H   0  0  0  0  0  0
    5.5554    0.3673    1.1136 H   0  0  0  0  0  0
    4.0168    2.8219    0.2041 H   0  0  0  0  0  0
    3.4783   -0.2113    2.4462 H   0  0  0  0  0  0
    1.7246   -0.0950    2.4694 H   0  0  0  0  0  0
    2.6916    1.1261    3.2798 H   0  0  0  0  0  0
   -6.9259   -4.0988    0.3222 H   0  0  0  0  0  0
   -6.4522   -4.0707   -1.3890 H   0  0  0  0  0  0
   -7.3370   -2.6826   -0.6660 H   0  0  0  0  0  0
    6.9390    4.6835    1.2745 H   0  0  0  0  0  0
    5.3474    4.5693    0.5218 H   0  0  0  0  0  0
    6.5477    3.2294    0.3606 H   0  0  0  0  0  0
  1  2  2  0  0  0
  1  4  1  0  0  0
  1 27  1  0  0  0
  2  3  1  0  0  0
  2 20  1  0  0  0
  3  6  2  0  0  0
  3 28  1  0  0  0
  4  5  2  0  0  0
  4 29  1  0  0  0
  5  6  1  0  0  0
  5  9  1  0  0  0
  6  7  1  0  0  0
  7  8  1  0  0  0
  7 30  1  0  0  0
  7 31  1  0  0  0
  8 10  1  0  0  0
  8 32  1  0  0  0
  8 33  1  0  0  0
  9 10  1  0  0  0
  9 12  1  0  0  0
  9 34  1  0  0  0
 10 14  1  0  0  0
 10 35  1  0  0  0
 11 12  1  0  0  0
 11 13  1  0  0  0
 11 36  1  0  0  0
 11 37  1  0  0  0
 12 38  1  0  0  0
 12 39  1  0  0  0
 13 14  1  0  0  0
 13 17  1  0  0  0
 13 19  1  0  0  0
 14 15  1  0  0  0
 14 40  1  0  0  0
 15 16  1  0  0  0
 15 41  1  0  0  0
 15 42  1  0  0  0
 16 17  1  0  0  0
 16 43  1  0  0  0
 16 44  1  0  0  0
 17 18  1  0  0  0
 17 45  1  0  0  0
 18 24  1  0  0  0
 19 46  1  0  0  0
 19 47  1  0  0  0
 19 48  1  0  0  0
 20 21  1  0  0  0
 21 22  1  0  0  0
 21 23  2  0  0  0
 22 49  1  0  0  0
 22 50  1  0  0  0
 22 51  1  0  0  0
 24 25  2  0  0  0
 24 26  1  0  0  0
 26 52  1  0  0  0
 26 53  1  0  0  0
 26 54  1  0  0  0
M  END
>  <Name>
tox-279

>  <substance>
Estradiol diacetate

>  <CASRN>
3434-88-6

>  <from_NCI>
1

>  <RBA>
11.000000

>  <method>
RBC

>  <chemical_class>
Steroid, nonphenolic

>  <set>
0

$$$$
tox-280
  Cerius2 12190218263D 1   1.00000                          
 Structure written by MMmdl.
 47 50  0  0  0  0  0  0  0  0999 V2000
    1.4059    0.0860   -0.3962 C   0  0  0  0  0  0
    0.0412    0.8067   -0.1825 C   0  0  0  0  0  0
    2.5074    1.1425   -0.5088 C   0  0  0  0  0  0
    1.3093   -0.7982   -1.6422 C   0  0  0  0  0  0
   -1.1132   -0.1941   -0.1440 C   0  0  0  0  0  0
    0.1056    1.7843    1.0196 C   0  0  0  0  0  0
    2.6473    2.0129    0.7713 C   0  0  0  0  0  0
    3.9367    0.6935   -0.7972 C   0  0  0  0  0  0
    0.2960   -1.9152   -1.4089 C   0  0  0  0  0  0
   -0.9899   -1.4537   -0.7639 C   0  0  0  0  0  0
   -2.3521    0.1420    0.4269 C   0  0  0  0  0  0
    1.3063    2.7492    0.9663 C   0  0  0  0  0  0
    3.8487    2.9242    0.3133 C   0  0  0  0  0  0
    4.8101    1.8836   -0.3411 C   0  0  0  0  0  0
   -2.0752   -2.3499   -0.7493 C   0  0  0  0  0  0
   -3.4273   -0.7559    0.4268 C   0  0  0  0  0  0
    4.4711    3.5488    1.2986 O   0  0  0  0  0  0
   -3.2920   -2.0095   -0.1578 C   0  0  0  0  0  0
   -4.2560   -2.9768   -0.2229 O   0  0  0  0  0  0
   -5.5137   -2.6698    0.3770 C   0  0  0  0  0  0
    2.9587    1.1654    2.0439 C   0  0  0  0  0  0
    1.6136   -0.5731    0.4560 H   0  0  0  0  0  0
   -0.1510    1.4254   -1.0729 H   0  0  0  0  0  0
    2.2226    1.8002   -1.3472 H   0  0  0  0  0  0
    2.2782   -1.2469   -1.8877 H   0  0  0  0  0  0
    1.0079   -0.1954   -2.5087 H   0  0  0  0  0  0
    0.1195    1.2191    1.9591 H   0  0  0  0  0  0
   -0.7987    2.4032    1.0517 H   0  0  0  0  0  0
    4.0894    0.4776   -1.8596 H   0  0  0  0  0  0
    4.1976   -0.2093   -0.2341 H   0  0  0  0  0  0
    0.7453   -2.6741   -0.7555 H   0  0  0  0  0  0
    0.0773   -2.3962   -2.3700 H   0  0  0  0  0  0
   -2.5152    1.1173    0.8814 H   0  0  0  0  0  0
    1.3308    3.3511    1.8828 H   0  0  0  0  0  0
    1.1462    3.4537    0.1397 H   0  0  0  0  0  0
    3.4661    3.5318   -0.5232 H   0  0  0  0  0  0
    5.3281    2.3318   -1.1984 H   0  0  0  0  0  0
    5.5894    1.5166    0.3409 H   0  0  0  0  0  0
   -1.9668   -3.3316   -1.2107 H   0  0  0  0  0  0
   -4.3556   -0.4335    0.8912 H   0  0  0  0  0  0
   -6.1650   -3.5394    0.2470 H   0  0  0  0  0  0
   -5.9894   -1.8186   -0.1211 H   0  0  0  0  0  0
   -5.4042   -2.4920    1.4519 H   0  0  0  0  0  0
    3.0300    1.8109    2.9272 H   0  0  0  0  0  0
    3.9048    0.6215    1.9615 H   0  0  0  0  0  0
    2.1848    0.4261    2.2640 H   0  0  0  0  0  0
    5.1038    4.0192    0.9810 H   0  0  0  0  0  0
  1  2  1  0  0  0
  1  3  1  0  0  0
  1  4  1  0  0  0
  1 22  1  0  0  0
  2  5  1  0  0  0
  2  6  1  0  0  0
  2 23  1  0  0  0
  3  7  1  0  0  0
  3  8  1  0  0  0
  3 24  1  0  0  0
  4  9  1  0  0  0
  4 25  1  0  0  0
  4 26  1  0  0  0
  5 10  2  0  0  0
  5 11  1  0  0  0
  6 12  1  0  0  0
  6 27  1  0  0  0
  6 28  1  0  0  0
  7 12  1  0  0  0
  7 13  1  0  0  0
  7 21  1  0  0  0
  8 14  1  0  0  0
  8 29  1  0  0  0
  8 30  1  0  0  0
  9 10  1  0  0  0
  9 31  1  0  0  0
  9 32  1  0  0  0
 10 15  1  0  0  0
 11 16  2  0  0  0
 11 33  1  0  0  0
 12 34  1  0  0  0
 12 35  1  0  0  0
 13 14  1  0  0  0
 13 17  1  0  0  0
 13 36  1  0  0  0
 14 37  1  0  0  0
 14 38  1  0  0  0
 15 18  2  0  0  0
 15 39  1  0  0  0
 16 18  1  0  0  0
 16 40  1  0  0  0
 17 47  1  0  0  0
 18 19  1  0  0  0
 19 20  1  0  0  0
 20 41  1  0  0  0
 20 42  1  0  0  0
 20 43  1  0  0  0
 21 44  1  0  0  0
 21 45  1  0  0  0
 21 46  1  0  0  0
M  END
>  <Name>
tox-280

>  <substance>
17b-Estradiol 3-methyl ether

>  <CASRN>
1035-77-4

>  <from_NCI>
1

>  <RBA>
1.900000

>  <method>
RBC,RUC

>  <chemical_class>
Steroid, nonphenolic

>  <set>
0

$$$$
tox-281
  Cerius2 12190218263D 1   1.00000                          
 Structure written by MMmdl.
 42 45  0  0  0  0  0  0  0  0999 V2000
   -5.4130   -4.2124   16.6801 C   0  0  0  0  0  0
   -6.7712   -3.9446   16.7090 C   0  0  0  0  0  0
   -7.5270   -4.0678   15.5384 C   0  0  0  0  0  0
   -4.7977   -4.5972   15.4967 C   0  0  0  0  0  0
   -5.5538   -4.7338   14.3155 C   0  0  0  0  0  0
   -4.8151   -5.1021   13.0510 C   0  0  0  0  0  0
   -5.7333   -5.6346   11.9603 C   0  0  0  0  0  0
   -6.9285   -4.6965   11.7666 C   0  0  0  0  0  0
   -7.8137   -5.1928   10.6144 C   0  0  0  0  0  0
   -7.2598   -5.1036    9.1939 C   0  0  0  0  0  0
   -8.5092   -5.1123    8.2967 C   0  0  0  0  0  0
   -9.7230   -5.0447    9.2415 C   0  0  0  0  0  0
   -9.1538   -4.4364   10.5372 C   0  0  0  0  0  0
   -9.0098   -2.8983   10.4133 C   0  0  0  0  0  0
   -9.9441   -4.7753   11.8106 C   0  0  0  0  0  0
   -9.0897   -4.6699   13.0576 C   0  0  0  0  0  0
   -7.7376   -4.5977   13.0665 C   0  0  0  0  0  0
   -6.9426   -4.4729   14.3234 C   0  0  0  0  0  0
   -4.7058   -4.0769   17.8372 O   0  0  0  0  0  0
  -10.7723   -4.2904    8.6542 O   0  0  0  0  0  0
   -7.2525   -3.6314   17.6327 H   0  0  0  0  0  0
   -8.5845   -3.8213   15.6036 H   0  0  0  0  0  0
   -3.7264   -4.7904   15.4735 H   0  0  0  0  0  0
   -4.0552   -5.8619   13.2699 H   0  0  0  0  0  0
   -4.2936   -4.2077   12.6874 H   0  0  0  0  0  0
   -6.0817   -6.6406   12.2311 H   0  0  0  0  0  0
   -5.1611   -5.7352   11.0308 H   0  0  0  0  0  0
   -6.5478   -3.6946   11.5253 H   0  0  0  0  0  0
   -8.0301   -6.2595   10.7968 H   0  0  0  0  0  0
   -6.5962   -5.9427    8.9615 H   0  0  0  0  0  0
   -6.6903   -4.1799    9.0414 H   0  0  0  0  0  0
   -8.5509   -6.0257    7.6928 H   0  0  0  0  0  0
   -8.4882   -4.2704    7.5951 H   0  0  0  0  0  0
  -10.0961   -6.0622    9.4146 H   0  0  0  0  0  0
   -9.9935   -2.4251   10.3144 H   0  0  0  0  0  0
   -8.4201   -2.6048    9.5393 H   0  0  0  0  0  0
   -8.5330   -2.4509   11.2909 H   0  0  0  0  0  0
  -10.3413   -5.7969   11.7635 H   0  0  0  0  0  0
  -10.8089   -4.1081   11.9074 H   0  0  0  0  0  0
   -9.6669   -4.6674   13.9788 H   0  0  0  0  0  0
   -3.7676   -4.2997   17.6556 H   0  0  0  0  0  0
  -11.0001   -4.7412    7.8142 H   0  0  0  0  0  0
  1  2  2  0  0  0
  1  4  1  0  0  0
  1 19  1  0  0  0
  2  3  1  0  0  0
  2 21  1  0  0  0
  3 18  2  0  0  0
  3 22  1  0  0  0
  4  5  2  0  0  0
  4 23  1  0  0  0
  5  6  1  0  0  0
  5 18  1  0  0  0
  6  7  1  0  0  0
  6 24  1  0  0  0
  6 25  1  0  0  0
  7  8  1  0  0  0
  7 26  1  0  0  0
  7 27  1  0  0  0
  8  9  1  0  0  0
  8 17  1  0  0  0
  8 28  1  0  0  0
  9 10  1  0  0  0
  9 13  1  0  0  0
  9 29  1  0  0  0
 10 11  1  0  0  0
 10 30  1  0  0  0
 10 31  1  0  0  0
 11 12  1  0  0  0
 11 32  1  0  0  0
 11 33  1  0  0  0
 12 13  1  0  0  0
 12 20  1  0  0  0
 12 34  1  0  0  0
 13 14  1  0  0  0
 13 15  1  0  0  0
 14 35  1  0  0  0
 14 36  1  0  0  0
 14 37  1  0  0  0
 15 16  1  0  0  0
 15 38  1  0  0  0
 15 39  1  0  0  0
 16 17  2  0  0  0
 16 40  1  0  0  0
 17 18  1  0  0  0
 19 41  1  0  0  0
 20 42  1  0  0  0
M  END
>  <Name>
tox-281

>  <substance>
9-dehydro-Estratetraene-3,17b-diol

>  <CASRN>
791-69-5

>  <from_NCI>
0

>  <RBA>
80.000000

>  <method>
MCF-7 cytosol

>  <chemical_class>
Steroid, phenolic

>  <set>
0

$$$$
tox-282
  Cerius2 12190218263D 1   1.00000                          
 Structure written by MMmdl.
 40 43  0  0  0  0  0  0  0  0999 V2000
   -5.3924   -4.1822   16.6427 C   0  0  0  0  0  0
   -6.7570   -3.9281   16.6961 C   0  0  0  0  0  0
   -7.5519   -4.1541   15.5698 C   0  0  0  0  0  0
   -4.8005   -4.6572   15.4772 C   0  0  0  0  0  0
   -5.5884   -4.8739   14.3395 C   0  0  0  0  0  0
   -4.9622   -5.3687   13.1055 C   0  0  0  0  0  0
   -5.6012   -5.2591   11.9307 C   0  0  0  0  0  0
   -6.9785   -4.6443   11.8396 C   0  0  0  0  0  0
   -7.7998   -5.1303   10.6417 C   0  0  0  0  0  0
   -7.2276   -5.0438    9.2292 C   0  0  0  0  0  0
   -8.4446   -5.3648    8.3480 C   0  0  0  0  0  0
   -9.6194   -4.9402    9.2140 C   0  0  0  0  0  0
   -9.1459   -4.3734   10.5436 C   0  0  0  0  0  0
   -9.0473   -2.8462   10.3596 C   0  0  0  0  0  0
   -9.9788   -4.7214   11.7749 C   0  0  0  0  0  0
   -9.2296   -4.3696   13.0747 C   0  0  0  0  0  0
   -7.8003   -4.9624   13.1361 C   0  0  0  0  0  0
   -6.9803   -4.6223   14.3777 C   0  0  0  0  0  0
  -10.7933   -5.0247    8.8622 O   0  0  0  0  0  0
   -4.6557   -3.9534   17.7680 O   0  0  0  0  0  0
   -7.2120   -3.5620   17.6140 H   0  0  0  0  0  0
   -8.6197   -3.9640   15.6505 H   0  0  0  0  0  0
   -3.7312   -4.8530   15.4447 H   0  0  0  0  0  0
   -3.9580   -5.7812   13.1597 H   0  0  0  0  0  0
   -5.0960   -5.5745   11.0216 H   0  0  0  0  0  0
   -6.8189   -3.5615   11.7560 H   0  0  0  0  0  0
   -8.0081   -6.2016   10.8091 H   0  0  0  0  0  0
   -6.4218   -5.7630    9.0537 H   0  0  0  0  0  0
   -6.8351   -4.0448    9.0112 H   0  0  0  0  0  0
   -8.5184   -6.4390    8.1557 H   0  0  0  0  0  0
   -8.4234   -4.8019    7.4125 H   0  0  0  0  0  0
  -10.0498   -2.4132   10.2553 H   0  0  0  0  0  0
   -8.4977   -2.5682    9.4540 H   0  0  0  0  0  0
   -8.5650   -2.3461   11.2032 H   0  0  0  0  0  0
  -10.2186   -5.7928   11.7761 H   0  0  0  0  0  0
  -10.9425   -4.1984   11.7523 H   0  0  0  0  0  0
   -9.8266   -4.7457   13.9146 H   0  0  0  0  0  0
   -9.1852   -3.2801   13.1925 H   0  0  0  0  0  0
   -7.9360   -6.0554   13.1855 H   0  0  0  0  0  0
   -3.7196   -4.1772   17.5776 H   0  0  0  0  0  0
  1  2  2  0  0  0
  1  4  1  0  0  0
  1 20  1  0  0  0
  2  3  1  0  0  0
  2 21  1  0  0  0
  3 18  2  0  0  0
  3 22  1  0  0  0
  4  5  2  0  0  0
  4 23  1  0  0  0
  5  6  1  0  0  0
  5 18  1  0  0  0
  6  7  2  0  0  0
  6 24  1  0  0  0
  7  8  1  0  0  0
  7 25  1  0  0  0
  8  9  1  0  0  0
  8 17  1  0  0  0
  8 26  1  0  0  0
  9 10  1  0  0  0
  9 13  1  0  0  0
  9 27  1  0  0  0
 10 11  1  0  0  0
 10 28  1  0  0  0
 10 29  1  0  0  0
 11 12  1  0  0  0
 11 30  1  0  0  0
 11 31  1  0  0  0
 12 13  1  0  0  0
 12 19  2  0  0  0
 13 14  1  0  0  0
 13 15  1  0  0  0
 14 32  1  0  0  0
 14 33  1  0  0  0
 14 34  1  0  0  0
 15 16  1  0  0  0
 15 35  1  0  0  0
 15 36  1  0  0  0
 16 17  1  0  0  0
 16 37  1  0  0  0
 16 38  1  0  0  0
 17 18  1  0  0  0
 17 39  1  0  0  0
 20 40  1  0  0  0
M  END
>  <Name>
tox-282

>  <substance>
Estra-1,3,5(10),6-tetraen-17-one, 3- hydroxy-

>  <CASRN>


>  <from_NCI>
0

>  <RBA>
10.000000

>  <method>
RBC

>  <chemical_class>
Steroid, phenolic

>  <set>
1

$$$$
tox-283
  Cerius2 12190218263D 1   1.00000                          
 Structure written by MMmdl.
 43 47  0  0  0  0  0  0  0  0999 V2000
   -2.6475    1.7728    3.4294 C   0  0  0  0  0  0
   -3.2192    2.4595    4.4590 O   0  0  0  0  0  0
   -3.3279    1.7169    2.2239 C   0  0  0  0  0  0
   -2.7700    1.0261    1.1453 C   0  0  0  0  0  0
   -1.4206    1.1384    3.5766 C   0  0  0  0  0  0
   -0.8541    0.4315    2.4995 C   0  0  0  0  0  0
    0.4895   -0.2253    2.7190 C   0  0  0  0  0  0
    0.8693   -1.2266    1.6333 C   0  0  0  0  0  0
    0.6002   -0.6195    0.2571 C   0  0  0  0  0  0
    1.0940   -1.4384   -0.8999 C   0  0  0  0  0  0
    2.1724   -2.4670   -0.9675 C   0  0  0  0  0  0
    2.6090   -2.6192   -2.3970 C   0  0  0  0  0  0
    1.4451   -2.0075   -3.2202 C   0  0  0  0  0  0
    1.9159   -1.5459   -4.4811 O   0  0  0  0  0  0
    0.8780   -0.8777   -2.2941 C   0  0  0  0  0  0
    1.6744    0.4301   -2.4970 C   0  0  0  0  0  0
   -0.6267   -0.6284   -2.4780 C   0  0  0  0  0  0
   -1.2291    0.2031   -1.3252 C   0  0  0  0  0  0
   -0.9314   -0.3934    0.0806 C   0  0  0  0  0  0
   -1.5177    0.3941    1.2522 C   0  0  0  0  0  0
    0.8157   -2.8524   -0.7403 O   0  0  0  0  0  0
   -2.6220    2.4073    5.2356 H   0  0  0  0  0  0
   -4.2944    2.2035    2.1134 H   0  0  0  0  0  0
   -3.3438    0.9878    0.2217 H   0  0  0  0  0  0
   -0.8917    1.1818    4.5274 H   0  0  0  0  0  0
    0.4971   -0.7399    3.6875 H   0  0  0  0  0  0
    1.2486    0.5663    2.7605 H   0  0  0  0  0  0
    0.2922   -2.1514    1.7633 H   0  0  0  0  0  0
    1.9257   -1.4948    1.7473 H   0  0  0  0  0  0
    1.1131    0.3510    0.2262 H   0  0  0  0  0  0
    2.9174   -2.5882   -0.2014 H   0  0  0  0  0  0
    2.7683   -3.6685   -2.6645 H   0  0  0  0  0  0
    3.5467   -2.0817   -2.5753 H   0  0  0  0  0  0
    0.6888   -2.7826   -3.3984 H   0  0  0  0  0  0
    1.1320   -1.1896   -4.9500 H   0  0  0  0  0  0
    1.5345    0.8243   -3.5095 H   0  0  0  0  0  0
    2.7474    0.2730   -2.3409 H   0  0  0  0  0  0
    1.3708    1.2191   -1.8030 H   0  0  0  0  0  0
   -1.1598   -1.5877   -2.5126 H   0  0  0  0  0  0
   -0.8203   -0.1289   -3.4346 H   0  0  0  0  0  0
   -2.3099    0.2501   -1.4986 H   0  0  0  0  0  0
   -0.8651    1.2364   -1.3754 H   0  0  0  0  0  0
   -1.4247   -1.3770    0.1141 H   0  0  0  0  0  0
  1  2  1  0  0  0
  1  3  2  0  0  0
  1  5  1  0  0  0
  2 22  1  0  0  0
  3  4  1  0  0  0
  3 23  1  0  0  0
  4 20  2  0  0  0
  4 24  1  0  0  0
  5  6  2  0  0  0
  5 25  1  0  0  0
  6  7  1  0  0  0
  6 20  1  0  0  0
  7  8  1  0  0  0
  7 26  1  0  0  0
  7 27  1  0  0  0
  8  9  1  0  0  0
  8 28  1  0  0  0
  8 29  1  0  0  0
  9 10  1  0  0  0
  9 19  1  0  0  0
  9 30  1  0  0  0
 10 11  1  0  0  0
 10 15  1  0  0  0
 10 21  1  0  0  0
 11 12  1  0  0  0
 11 21  1  0  0  0
 11 31  1  0  0  0
 12 13  1  0  0  0
 12 32  1  0  0  0
 12 33  1  0  0  0
 13 14  1  0  0  0
 13 15  1  0  0  0
 13 34  1  0  0  0
 14 35  1  0  0  0
 15 16  1  0  0  0
 15 17  1  0  0  0
 16 36  1  0  0  0
 16 37  1  0  0  0
 16 38  1  0  0  0
 17 18  1  0  0  0
 17 39  1  0  0  0
 17 40  1  0  0  0
 18 19  1  0  0  0
 18 41  1  0  0  0
 18 42  1  0  0  0
 19 20  1  0  0  0
 19 43  1  0  0  0
M  END
>  <Name>
tox-283

>  <substance>
Estra-1,3,5(10)-triene-3,17b- diol,14a,15a-epoxy-

>  <CASRN>
79581-12-7

>  <from_NCI>
0

>  <RBA>
5.000000

>  <method>
MCF-7 cytosol

>  <chemical_class>
Steroid, phenolic

>  <set>
2

$$$$
tox-284
  Cerius2 12190218263D 1   1.00000                          
 Structure written by MMmdl.
 43 47  0  0  0  0  0  0  0  0999 V2000
   -1.8814    2.0306   -3.0773 C   0  0  0  0  0  0
   -2.3966    2.7047   -4.1443 O   0  0  0  0  0  0
   -1.5795    2.7512   -1.9332 C   0  0  0  0  0  0
   -1.0554    2.0921   -0.8183 C   0  0  0  0  0  0
   -1.6540    0.6614   -3.1284 C   0  0  0  0  0  0
   -1.1154   -0.0095   -2.0147 C   0  0  0  0  0  0
   -0.8925   -1.4989   -2.1285 C   0  0  0  0  0  0
    0.0166   -2.0595   -1.0404 C   0  0  0  0  0  0
   -0.4356   -1.5419    0.3265 C   0  0  0  0  0  0
    0.2428   -2.1892    1.5039 C   0  0  0  0  0  0
    1.6560   -2.6654    1.5078 C   0  0  0  0  0  0
    2.2265   -2.5087    2.8860 C   0  0  0  0  0  0
    1.0074   -2.3187    3.8148 C   0  0  0  0  0  0
    0.6622   -3.5953    4.3697 O   0  0  0  0  0  0
   -0.1191   -1.7146    2.9023 C   0  0  0  0  0  0
   -1.5242   -2.1773    3.3080 C   0  0  0  0  0  0
   -0.0228   -0.1693    2.9248 C   0  0  0  0  0  0
   -0.7452    0.5130    1.7540 C   0  0  0  0  0  0
   -0.2356   -0.0040    0.3871 C   0  0  0  0  0  0
   -0.8408    0.7016   -0.8258 C   0  0  0  0  0  0
    0.5610   -3.5847    1.3740 O   0  0  0  0  0  0
   -2.5574    2.0624   -4.8682 H   0  0  0  0  0  0
   -1.7438    3.8259   -1.8990 H   0  0  0  0  0  0
   -0.8097    2.6952    0.0534 H   0  0  0  0  0  0
   -1.8861    0.1005   -4.0323 H   0  0  0  0  0  0
   -0.4544   -1.7355   -3.1057 H   0  0  0  0  0  0
   -1.8705   -1.9939   -2.0764 H   0  0  0  0  0  0
    1.0556   -1.7642   -1.2349 H   0  0  0  0  0  0
   -0.0149   -3.1542   -1.0831 H   0  0  0  0  0  0
   -1.5091   -1.7619    0.4179 H   0  0  0  0  0  0
    2.3320   -2.5162    0.6837 H   0  0  0  0  0  0
    2.8577   -1.6138    2.9047 H   0  0  0  0  0  0
    2.8307   -3.3782    3.1619 H   0  0  0  0  0  0
    1.2597   -1.6670    4.6585 H   0  0  0  0  0  0
   -0.0146   -3.4226    5.0566 H   0  0  0  0  0  0
   -1.7444   -1.8971    4.3437 H   0  0  0  0  0  0
   -1.6303   -3.2641    3.2183 H   0  0  0  0  0  0
   -2.3000   -1.7375    2.6735 H   0  0  0  0  0  0
    1.0305    0.1395    2.8860 H   0  0  0  0  0  0
   -0.4186    0.2169    3.8724 H   0  0  0  0  0  0
   -0.5706    1.5893    1.8546 H   0  0  0  0  0  0
   -1.8291    0.3675    1.8340 H   0  0  0  0  0  0
    0.8446    0.2022    0.3407 H   0  0  0  0  0  0
  1  2  1  0  0  0
  1  3  2  0  0  0
  1  5  1  0  0  0
  2 22  1  0  0  0
  3  4  1  0  0  0
  3 23  1  0  0  0
  4 20  2  0  0  0
  4 24  1  0  0  0
  5  6  2  0  0  0
  5 25  1  0  0  0
  6  7  1  0  0  0
  6 20  1  0  0  0
  7  8  1  0  0  0
  7 26  1  0  0  0
  7 27  1  0  0  0
  8  9  1  0  0  0
  8 28  1  0  0  0
  8 29  1  0  0  0
  9 10  1  0  0  0
  9 19  1  0  0  0
  9 30  1  0  0  0
 10 11  1  0  0  0
 10 15  1  0  0  0
 10 21  1  0  0  0
 11 12  1  0  0  0
 11 21  1  0  0  0
 11 31  1  0  0  0
 12 13  1  0  0  0
 12 32  1  0  0  0
 12 33  1  0  0  0
 13 14  1  0  0  0
 13 15  1  0  0  0
 13 34  1  0  0  0
 14 35  1  0  0  0
 15 16  1  0  0  0
 15 17  1  0  0  0
 16 36  1  0  0  0
 16 37  1  0  0  0
 16 38  1  0  0  0
 17 18  1  0  0  0
 17 39  1  0  0  0
 17 40  1  0  0  0
 18 19  1  0  0  0
 18 41  1  0  0  0
 18 42  1  0  0  0
 19 20  1  0  0  0
 19 43  1  0  0  0
M  END
>  <Name>
tox-284

>  <substance>
Estra-1,3,5(10)-triene-3,17b- diol,14b,15b-epoxy-

>  <CASRN>
79645-49-1

>  <from_NCI>
0

>  <RBA>
0.000000

>  <method>
MCF-7 cytosol

>  <chemical_class>
Steroid, phenolic

>  <set>
0

$$$$
tox-285
  Cerius2 12190218263D 1   1.00000                          
 Structure written by MMmdl.
 45 48  0  0  0  0  0  0  0  0999 V2000
   -6.7705   -4.0555   16.7290 C   0  0  0  0  0  0
   -5.3681   -4.0144   16.7020 C   0  0  0  0  0  0
   -4.8067   -4.3530   15.4567 C   0  0  0  0  0  0
   -7.5541   -4.3934   15.6104 C   0  0  0  0  0  0
   -6.9697   -4.7031   14.3768 C   0  0  0  0  0  0
   -5.5667   -4.7084   14.3141 C   0  0  0  0  0  0
   -4.8148   -5.0313   13.0422 C   0  0  0  0  0  0
   -5.6645   -5.7210   11.9767 C   0  0  0  0  0  0
   -7.8215   -5.1139   13.1714 C   0  0  0  0  0  0
   -7.0130   -4.9895   11.8274 C   0  0  0  0  0  0
  -10.0207   -4.6677   11.8056 C   0  0  0  0  0  0
   -9.2119   -4.4112   13.0999 C   0  0  0  0  0  0
   -9.1645   -4.4522   10.5324 C   0  0  0  0  0  0
   -7.8831   -5.4028   10.5992 C   0  0  0  0  0  0
   -7.2959   -5.1816    9.1876 C   0  0  0  0  0  0
   -8.5232   -4.9653    8.2393 C   0  0  0  0  0  0
   -9.8043   -4.8756    9.1414 C   0  0  0  0  0  0
   -8.1596   -6.7109   10.6915 O   0  0  0  0  0  0
   -8.7823   -2.9146   10.5037 C   0  0  0  0  0  0
  -10.6538   -4.0026    8.6209 O   0  0  0  0  0  0
   -4.6658   -3.7028   17.7153 O   0  0  0  0  0  0
   -7.2999   -3.8189   17.6568 H   0  0  0  0  0  0
   -3.7162   -4.3467   15.3559 H   0  0  0  0  0  0
   -8.6342   -4.4119   15.7419 H   0  0  0  0  0  0
   -3.9563   -5.6738   13.2724 H   0  0  0  0  0  0
   -4.4222   -4.0905   12.6358 H   0  0  0  0  0  0
   -5.8272   -6.7677   12.2628 H   0  0  0  0  0  0
   -5.1156   -5.7257   11.0282 H   0  0  0  0  0  0
   -8.0277   -6.1821   13.3374 H   0  0  0  0  0  0
   -6.7372   -3.9354   11.6968 H   0  0  0  0  0  0
  -10.8965   -4.0073   11.7929 H   0  0  0  0  0  0
  -10.4170   -5.6902   11.8300 H   0  0  0  0  0  0
   -9.0838   -3.3310   13.2406 H   0  0  0  0  0  0
   -9.8359   -4.7446   13.9382 H   0  0  0  0  0  0
   -6.6651   -6.0025    8.8216 H   0  0  0  0  0  0
   -6.6682   -4.2818    9.1672 H   0  0  0  0  0  0
   -8.6161   -5.8093    7.5438 H   0  0  0  0  0  0
   -8.3495   -4.0694    7.6281 H   0  0  0  0  0  0
  -10.1593   -5.9098    9.2676 H   0  0  0  0  0  0
   -8.1792   -2.6470    9.6311 H   0  0  0  0  0  0
   -8.2283   -2.5832   11.3839 H   0  0  0  0  0  0
   -9.6880   -2.2967   10.4736 H   0  0  0  0  0  0
  -10.9500   -4.3012    7.8822 H   0  0  0  0  0  0
   -3.8417   -3.7327   17.5089 H   0  0  0  0  0  0
   -8.6338   -6.9478   10.0270 H   0  0  0  0  0  0
  1  2  2  0  0  0
  1  4  1  0  0  0
  1 22  1  0  0  0
  2  3  1  0  0  0
  2 21  1  0  0  0
  3  6  2  0  0  0
  3 23  1  0  0  0
  4  5  2  0  0  0
  4 24  1  0  0  0
  5  6  1  0  0  0
  5  9  1  0  0  0
  6  7  1  0  0  0
  7  8  1  0  0  0
  7 25  1  0  0  0
  7 26  1  0  0  0
  8 10  1  0  0  0
  8 27  1  0  0  0
  8 28  1  0  0  0
  9 10  1  0  0  0
  9 12  1  0  0  0
  9 29  1  0  0  0
 10 14  1  0  0  0
 10 30  1  0  0  0
 11 12  1  0  0  0
 11 13  1  0  0  0
 11 31  1  0  0  0
 11 32  1  0  0  0
 12 33  1  0  0  0
 12 34  1  0  0  0
 13 14  1  0  0  0
 13 17  1  0  0  0
 13 19  1  0  0  0
 14 15  1  0  0  0
 14 18  1  0  0  0
 15 16  1  0  0  0
 15 35  1  0  0  0
 15 36  1  0  0  0
 16 17  1  0  0  0
 16 37  1  0  0  0
 16 38  1  0  0  0
 17 20  1  0  0  0
 17 39  1  0  0  0
 18 45  1  0  0  0
 19 40  1  0  0  0
 19 41  1  0  0  0
 19 42  1  0  0  0
 20 43  1  0  0  0
 21 44  1  0  0  0
M  END
>  <Name>
tox-285

>  <substance>
Estra-1,3,5(10)-triene-3,14,17b-triol

>  <CASRN>
16288-09-8

>  <from_NCI>
1

>  <RBA>
2.000000

>  <method>
MCF-7 cytosol

>  <chemical_class>
Steroid, phenolic

>  <set>
1

$$$$
tox-286
  Cerius2 12190218263D 1   1.00000                          
 Structure written by MMmdl.
 45 48  0  0  0  0  0  0  0  0999 V2000
   -5.4098   -4.1261   16.6605 C   0  0  0  0  0  0
   -4.6932   -3.8436   17.7853 O   0  0  0  0  0  0
   -6.7917   -4.0950   16.7415 C   0  0  0  0  0  0
   -7.5574   -4.3728   15.6068 C   0  0  0  0  0  0
   -4.7812   -4.4417   15.4628 C   0  0  0  0  0  0
   -5.5398   -4.7389   14.3115 C   0  0  0  0  0  0
   -4.8042   -5.0510   13.0219 C   0  0  0  0  0  0
   -5.6983   -5.6144   11.9180 C   0  0  0  0  0  0
   -6.9925   -4.8069   11.8269 C   0  0  0  0  0  0
   -7.8643   -5.2287   10.6436 C   0  0  0  0  0  0
   -7.2806   -5.1852    9.2341 C   0  0  0  0  0  0
   -8.5182   -5.1638    8.3181 C   0  0  0  0  0  0
   -9.7383   -4.9915    9.2436 C   0  0  0  0  0  0
  -10.7327   -4.1917    8.6226 O   0  0  0  0  0  0
   -9.1457   -4.3775   10.5288 C   0  0  0  0  0  0
   -8.9001   -2.8588   10.3389 C   0  0  0  0  0  0
   -9.9775   -4.6028   11.7978 C   0  0  0  0  0  0
   -9.1748   -4.2873   13.0748 C   0  0  0  0  0  0
   -7.8016   -5.0090   13.1433 C   0  0  0  0  0  0
   -6.9531   -4.6735   14.3713 C   0  0  0  0  0  0
   -3.7596   -5.9938   13.2825 O   0  0  0  0  0  0
   -3.7386   -3.9102   17.5692 H   0  0  0  0  0  0
   -7.2838   -3.8584   17.6821 H   0  0  0  0  0  0
   -8.6397   -4.3528   15.7158 H   0  0  0  0  0  0
   -3.6940   -4.4661   15.4061 H   0  0  0  0  0  0
   -4.3382   -4.1201   12.6738 H   0  0  0  0  0  0
   -5.9175   -6.6742   12.1070 H   0  0  0  0  0  0
   -5.1452   -5.5906   10.9715 H   0  0  0  0  0  0
   -6.7164   -3.7499   11.7212 H   0  0  0  0  0  0
   -8.1552   -6.2780   10.8194 H   0  0  0  0  0  0
   -6.6475   -6.0535    9.0252 H   0  0  0  0  0  0
   -6.6736   -4.2866    9.0776 H   0  0  0  0  0  0
   -8.6029   -6.1004    7.7555 H   0  0  0  0  0  0
   -8.4423   -4.3567    7.5807 H   0  0  0  0  0  0
  -10.1772   -5.9769    9.4454 H   0  0  0  0  0  0
  -10.9780   -4.6538    7.7937 H   0  0  0  0  0  0
   -9.8529   -2.3224   10.2599 H   0  0  0  0  0  0
   -8.3313   -2.6375    9.4303 H   0  0  0  0  0  0
   -8.3542   -2.4103   11.1730 H   0  0  0  0  0  0
  -10.3076   -5.6486   11.8469 H   0  0  0  0  0  0
  -10.8892   -3.9938   11.7769 H   0  0  0  0  0  0
   -9.7999   -4.5833   13.9252 H   0  0  0  0  0  0
   -9.0291   -3.2042   13.1663 H   0  0  0  0  0  0
   -8.0227   -6.0837   13.2367 H   0  0  0  0  0  0
   -3.2783   -6.0963   12.4352 H   0  0  0  0  0  0
  1  2  1  0  0  0
  1  3  2  0  0  0
  1  5  1  0  0  0
  2 22  1  0  0  0
  3  4  1  0  0  0
  3 23  1  0  0  0
  4 20  2  0  0  0
  4 24  1  0  0  0
  5  6  2  0  0  0
  5 25  1  0  0  0
  6  7  1  0  0  0
  6 20  1  0  0  0
  7  8  1  0  0  0
  7 21  1  0  0  0
  7 26  1  0  0  0
  8  9  1  0  0  0
  8 27  1  0  0  0
  8 28  1  0  0  0
  9 10  1  0  0  0
  9 19  1  0  0  0
  9 29  1  0  0  0
 10 11  1  0  0  0
 10 15  1  0  0  0
 10 30  1  0  0  0
 11 12  1  0  0  0
 11 31  1  0  0  0
 11 32  1  0  0  0
 12 13  1  0  0  0
 12 33  1  0  0  0
 12 34  1  0  0  0
 13 14  1  0  0  0
 13 15  1  0  0  0
 13 35  1  0  0  0
 14 36  1  0  0  0
 15 16  1  0  0  0
 15 17  1  0  0  0
 16 37  1  0  0  0
 16 38  1  0  0  0
 16 39  1  0  0  0
 17 18  1  0  0  0
 17 40  1  0  0  0
 17 41  1  0  0  0
 18 19  1  0  0  0
 18 42  1  0  0  0
 18 43  1  0  0  0
 19 20  1  0  0  0
 19 44  1  0  0  0
 21 45  1  0  0  0
M  END
>  <Name>
tox-286

>  <substance>
Estratriene-3,6a,17b-triol

>  <CASRN>
1229-24-9

>  <from_NCI>
0

>  <RBA>
0.700000

>  <method>
RUC

>  <chemical_class>
Steroid, phenolic

>  <set>
1

$$$$
tox-287
  Cerius2 12190218263D 1   1.00000                          
 Structure written by MMmdl.
 45 48  0  0  0  0  0  0  0  0999 V2000
    2.0702    0.3642    0.1221 C   0  0  0  0  0  0
    0.7264   -0.3733    0.1141 C   0  0  0  0  0  0
    1.9149    1.9094    0.1279 C   0  0  0  0  0  0
    3.0598    0.0933    1.2599 C   0  0  0  0  0  0
   -0.0492    0.0120   -1.1816 C   0  0  0  0  0  0
    0.8855   -1.8959    0.1595 C   0  0  0  0  0  0
    3.4511    2.3145    0.1616 C   0  0  0  0  0  0
    1.1691    2.2928   -1.1702 C   0  0  0  0  0  0
    1.0975    2.4276    1.3545 C   0  0  0  0  0  0
    4.0437    1.3216    1.2598 C   0  0  0  0  0  0
   -1.3639   -0.7567   -1.2901 C   0  0  0  0  0  0
   -0.1731    1.5508   -1.3245 C   0  0  0  0  0  0
   -0.4834   -2.5600    0.2886 C   0  0  0  0  0  0
    3.6497    3.5746    0.5328 O   0  0  0  0  0  0
    5.2412    0.8992    0.8770 O   0  0  0  0  0  0
   -1.5371   -1.9838   -0.6301 C   0  0  0  0  0  0
   -2.4052   -0.3205   -2.1155 C   0  0  0  0  0  0
   -2.7518   -2.6990   -0.7737 C   0  0  0  0  0  0
   -3.5958   -1.0593   -2.2444 C   0  0  0  0  0  0
   -3.8245   -2.2736   -1.5789 C   0  0  0  0  0  0
   -4.9050   -2.9336   -1.6964 O   0  0  0  0  0  0
    2.5905    0.0708   -0.8049 H   0  0  0  0  0  0
    0.1418   -0.0817    0.9955 H   0  0  0  0  0  0
    3.5554   -0.8780    1.1338 H   0  0  0  0  0  0
    2.5306    0.0503    2.2207 H   0  0  0  0  0  0
    0.5495   -0.3297   -2.0403 H   0  0  0  0  0  0
    1.5078   -2.2055    1.0063 H   0  0  0  0  0  0
    1.3870   -2.2483   -0.7511 H   0  0  0  0  0  0
    3.8490    2.0035   -0.8211 H   0  0  0  0  0  0
    1.7953    2.0565   -2.0404 H   0  0  0  0  0  0
    0.9928    3.3747   -1.2030 H   0  0  0  0  0  0
    0.9879    3.5174    1.3101 H   0  0  0  0  0  0
    1.5788    2.1878    2.3073 H   0  0  0  0  0  0
    0.0856    2.0176    1.3974 H   0  0  0  0  0  0
    3.9289    1.7825    2.2544 H   0  0  0  0  0  0
   -0.9006    1.9352   -0.5997 H   0  0  0  0  0  0
   -0.5679    1.8072   -2.3145 H   0  0  0  0  0  0
   -0.8399   -2.4453    1.3202 H   0  0  0  0  0  0
   -0.3711   -3.6339    0.0962 H   0  0  0  0  0  0
   -2.3232    0.6004   -2.6893 H   0  0  0  0  0  0
   -2.8523   -3.6398   -0.2221 H   0  0  0  0  0  0
   -4.3680   -0.6511   -2.9033 H   0  0  0  0  0  0
    4.4832    3.7413    0.5350 H   0  0  0  0  0  0
    5.7841    1.5532    0.8722 H   0  0  0  0  0  0
   -5.4325   -2.5225   -2.2210 H   0  0  0  0  0  0
  1  2  1  0  0  0
  1  3  1  0  0  0
  1  4  1  0  0  0
  1 22  1  0  0  0
  2  5  1  0  0  0
  2  6  1  0  0  0
  2 23  1  0  0  0
  3  7  1  0  0  0
  3  8  1  0  0  0
  3  9  1  0  0  0
  4 10  1  0  0  0
  4 24  1  0  0  0
  4 25  1  0  0  0
  5 11  1  0  0  0
  5 12  1  0  0  0
  5 26  1  0  0  0
  6 13  1  0  0  0
  6 27  1  0  0  0
  6 28  1  0  0  0
  7 10  1  0  0  0
  7 14  1  0  0  0
  7 29  1  0  0  0
  8 12  1  0  0  0
  8 30  1  0  0  0
  8 31  1  0  0  0
  9 32  1  0  0  0
  9 33  1  0  0  0
  9 34  1  0  0  0
 10 15  1  0  0  0
 10 35  1  0  0  0
 11 16  2  0  0  0
 11 17  1  0  0  0
 12 36  1  0  0  0
 12 37  1  0  0  0
 13 16  1  0  0  0
 13 38  1  0  0  0
 13 39  1  0  0  0
 14 43  1  0  0  0
 15 44  1  0  0  0
 16 18  1  0  0  0
 17 19  2  0  0  0
 17 40  1  0  0  0
 18 20  2  0  0  0
 18 41  1  0  0  0
 19 20  1  0  0  0
 19 42  1  0  0  0
 20 21  1  0  0  0
 21 45  1  0  0  0
M  END
>  <Name>
tox-287

>  <substance>
Estriol

>  <CASRN>
50-27-1

>  <from_NCI>
1

>  <RBA>
23.000000

>  <method>
GST-hERadef,GST-mERadef,hERa,MCF-7 cytosol,MCF-7 cytosol,MCF-7 cytosol,MUC,RBC,RUC,RUC

>  <chemical_class>
Steroid, phenolic

>  <set>
0

$$$$
tox-288
  Cerius2 12190218263D 1   1.00000                          
 Structure written by MMmdl.
 42 45  0  0  0  0  0  0  0  0999 V2000
    2.2710    0.3463    0.1605 C   0  0  0  0  0  0
    0.8546   -0.2282    0.1467 C   0  0  0  0  0  0
    2.2511    1.8905    0.1495 C   0  0  0  0  0  0
    3.2273   -0.0063    1.2942 C   0  0  0  0  0  0
    0.1623    0.2099   -1.1818 C   0  0  0  0  0  0
    0.8298   -1.7551    0.2382 C   0  0  0  0  0  0
    1.6447    2.3388   -1.1768 C   0  0  0  0  0  0
    3.7412    2.1294    0.3407 C   0  0  0  0  0  0
    1.5399    2.5635    1.3391 C   0  0  0  0  0  0
    4.3959    0.9649    1.0672 C   0  0  0  0  0  0
   -1.2330   -0.3951   -1.3009 C   0  0  0  0  0  0
    0.2343    1.7493   -1.3778 C   0  0  0  0  0  0
   -0.6120   -2.2467    0.3456 C   0  0  0  0  0  0
    4.3447    3.1381   -0.0164 O   0  0  0  0  0  0
   -1.5679   -1.5727   -0.6133 C   0  0  0  0  0  0
   -2.1961    0.1418   -2.1609 C   0  0  0  0  0  0
   -2.8577   -2.1385   -0.7673 C   0  0  0  0  0  0
   -3.4651   -0.4499   -2.2986 C   0  0  0  0  0  0
   -3.8537   -1.6083   -1.6081 C   0  0  0  0  0  0
   -5.0042   -2.1350   -1.7341 O   0  0  0  0  0  0
    2.7656   -0.0065   -0.7613 H   0  0  0  0  0  0
    0.2908    0.1630    1.0035 H   0  0  0  0  0  0
    3.5683   -1.0453    1.2499 H   0  0  0  0  0  0
    2.7680    0.1520    2.2758 H   0  0  0  0  0  0
    0.7337   -0.2309   -2.0137 H   0  0  0  0  0  0
    1.3890   -2.1100    1.1109 H   0  0  0  0  0  0
    1.3080   -2.1925   -0.6477 H   0  0  0  0  0  0
    2.2874    2.0249   -2.0097 H   0  0  0  0  0  0
    1.5972    3.4333   -1.2314 H   0  0  0  0  0  0
    1.6245    3.6543    1.2612 H   0  0  0  0  0  0
    1.9844    2.2888    2.3016 H   0  0  0  0  0  0
    0.4746    2.3240    1.3886 H   0  0  0  0  0  0
    5.1535    0.5227    0.4138 H   0  0  0  0  0  0
    4.8376    1.2903    2.0114 H   0  0  0  0  0  0
   -0.4708    2.2399   -0.6955 H   0  0  0  0  0  0
   -0.0864    2.0159   -2.3916 H   0  0  0  0  0  0
   -0.9762   -2.0633    1.3646 H   0  0  0  0  0  0
   -0.6255   -3.3310    0.1812 H   0  0  0  0  0  0
   -1.9903    1.0297   -2.7553 H   0  0  0  0  0  0
   -3.0838   -3.0441   -0.1944 H   0  0  0  0  0  0
   -4.1684    0.0306   -2.9854 H   0  0  0  0  0  0
   -5.4668   -1.6777   -2.2812 H   0  0  0  0  0  0
  1  2  1  0  0  0
  1  3  1  0  0  0
  1  4  1  0  0  0
  1 21  1  0  0  0
  2  5  1  0  0  0
  2  6  1  0  0  0
  2 22  1  0  0  0
  3  7  1  0  0  0
  3  8  1  0  0  0
  3  9  1  0  0  0
  4 10  1  0  0  0
  4 23  1  0  0  0
  4 24  1  0  0  0
  5 11  1  0  0  0
  5 12  1  0  0  0
  5 25  1  0  0  0
  6 13  1  0  0  0
  6 26  1  0  0  0
  6 27  1  0  0  0
  7 12  1  0  0  0
  7 28  1  0  0  0
  7 29  1  0  0  0
  8 10  1  0  0  0
  8 14  2  0  0  0
  9 30  1  0  0  0
  9 31  1  0  0  0
  9 32  1  0  0  0
 10 33  1  0  0  0
 10 34  1  0  0  0
 11 15  2  0  0  0
 11 16  1  0  0  0
 12 35  1  0  0  0
 12 36  1  0  0  0
 13 15  1  0  0  0
 13 37  1  0  0  0
 13 38  1  0  0  0
 15 17  1  0  0  0
 16 18  2  0  0  0
 16 39  1  0  0  0
 17 19  2  0  0  0
 17 40  1  0  0  0
 18 19  1  0  0  0
 18 41  1  0  0  0
 19 20  1  0  0  0
 20 42  1  0  0  0
M  END
>  <Name>
tox-288

>  <substance>
Estrone

>  <CASRN>
53-16-7

>  <from_NCI>
1

>  <RBA>
38.000000

>  <method>
GST-hERadef,GST-mERadef,hERa,hERa-FP,MCF-7 cytosol,MCF-7 cytosol,MCF-7 cytosol,MUC,RBC,RUC,RUC,RUC,RUC

>  <chemical_class>
Steroid, phenolic

>  <set>
1

$$$$
tox-289
  Cerius2 12190218263D 1   1.00000                          
 Structure written by MMmdl.
 47 50  0  0  0  0  0  0  0  0999 V2000
    5.8438    2.9404   -0.2401 O   0  0  0  0  0  0
    5.1651    2.0098    0.1869 C   0  0  0  0  0  0
    5.7424    0.8072    0.9167 C   0  0  0  0  0  0
    4.4981   -0.0321    1.2450 C   0  0  0  0  0  0
    3.5155    0.3813    0.1551 C   0  0  0  0  0  0
    3.6498    1.9183    0.0891 C   0  0  0  0  0  0
    3.0134    2.3844   -1.2165 C   0  0  0  0  0  0
    1.5419    1.9363   -1.3159 C   0  0  0  0  0  0
    1.3256    0.4194   -1.0584 C   0  0  0  0  0  0
   -0.1320   -0.0414   -1.0756 C   0  0  0  0  0  0
   -1.0827    0.5857   -1.9046 C   0  0  0  0  0  0
   -2.4050    0.1408   -1.9576 C   0  0  0  0  0  0
   -2.7807   -0.9585   -1.1984 C   0  0  0  0  0  0
   -4.1119   -1.3740   -1.2073 O   0  0  0  0  0  0
   -4.3861   -2.3398   -2.1709 C   0  0  0  0  0  0
   -3.5922   -2.8276   -2.9702 O   0  0  0  0  0  0
   -5.8376   -2.7079   -2.0877 C   0  0  0  0  0  0
   -1.8697   -1.6034   -0.3687 C   0  0  0  0  0  0
   -0.5353   -1.1653   -0.3174 C   0  0  0  0  0  0
    0.4088   -1.8965    0.6088 C   0  0  0  0  0  0
    1.8808   -1.5582    0.3922 C   0  0  0  0  0  0
    2.0504   -0.0455    0.2431 C   0  0  0  0  0  0
    3.0815    2.6963    1.2913 C   0  0  0  0  0  0
    6.2706    1.1143    1.8218 H   0  0  0  0  0  0
    6.4110    0.2702    0.2378 H   0  0  0  0  0  0
    4.1167    0.2023    2.2446 H   0  0  0  0  0  0
    4.7304   -1.1013    1.2195 H   0  0  0  0  0  0
    3.9158   -0.0484   -0.7796 H   0  0  0  0  0  0
    3.5706    1.9806   -2.0721 H   0  0  0  0  0  0
    3.0729    3.4757   -1.3090 H   0  0  0  0  0  0
    1.1920    2.2027   -2.3200 H   0  0  0  0  0  0
    0.9314    2.5186   -0.6147 H   0  0  0  0  0  0
    1.7965   -0.1043   -1.9050 H   0  0  0  0  0  0
   -0.8124    1.4336   -2.5305 H   0  0  0  0  0  0
   -3.1256    0.6511   -2.5919 H   0  0  0  0  0  0
   -6.0604   -3.4726   -2.8373 H   0  0  0  0  0  0
   -6.4548   -1.8294   -2.2918 H   0  0  0  0  0  0
   -6.0606   -3.1151   -1.0984 H   0  0  0  0  0  0
   -2.1939   -2.4475    0.2372 H   0  0  0  0  0  0
    0.2774   -2.9792    0.4925 H   0  0  0  0  0  0
    0.1318   -1.6403    1.6395 H   0  0  0  0  0  0
    2.2538   -2.0692   -0.5048 H   0  0  0  0  0  0
    2.4581   -1.9411    1.2410 H   0  0  0  0  0  0
    1.5817    0.4272    1.1158 H   0  0  0  0  0  0
    2.0024    2.5684    1.4094 H   0  0  0  0  0  0
    3.2698    3.7700    1.1689 H   0  0  0  0  0  0
    3.5529    2.4075    2.2367 H   0  0  0  0  0  0
  1  2  2  0  0  0
  2  3  1  0  0  0
  2  6  1  0  0  0
  3  4  1  0  0  0
  3 24  1  0  0  0
  3 25  1  0  0  0
  4  5  1  0  0  0
  4 26  1  0  0  0
  4 27  1  0  0  0
  5  6  1  0  0  0
  5 22  1  0  0  0
  5 28  1  0  0  0
  6  7  1  0  0  0
  6 23  1  0  0  0
  7  8  1  0  0  0
  7 29  1  0  0  0
  7 30  1  0  0  0
  8  9  1  0  0  0
  8 31  1  0  0  0
  8 32  1  0  0  0
  9 10  1  0  0  0
  9 22  1  0  0  0
  9 33  1  0  0  0
 10 11  2  0  0  0
 10 19  1  0  0  0
 11 12  1  0  0  0
 11 34  1  0  0  0
 12 13  2  0  0  0
 12 35  1  0  0  0
 13 14  1  0  0  0
 13 18  1  0  0  0
 14 15  1  0  0  0
 15 16  2  0  0  0
 15 17  1  0  0  0
 17 36  1  0  0  0
 17 37  1  0  0  0
 17 38  1  0  0  0
 18 19  2  0  0  0
 18 39  1  0  0  0
 19 20  1  0  0  0
 20 21  1  0  0  0
 20 40  1  0  0  0
 20 41  1  0  0  0
 21 22  1  0  0  0
 21 42  1  0  0  0
 21 43  1  0  0  0
 22 44  1  0  0  0
 23 45  1  0  0  0
 23 46  1  0  0  0
 23 47  1  0  0  0
M  END
>  <Name>
tox-289

>  <substance>
Estrone 3-acetate

>  <CASRN>
901-93-9

>  <from_NCI>
1

>  <RBA>
191.000000

>  <method>
RBC

>  <chemical_class>
Steroid, nonphenolic

>  <set>
0

$$$$
tox-290
  Cerius2 12190218263D 1   1.00000                          
 Structure written by MMmdl.
 45 48  0  0  0  0  0  0  0  0999 V2000
  -10.8460   -4.8199    8.8754 O   0  0  0  0  0  0
   -9.6670   -4.8462    9.2193 C   0  0  0  0  0  0
   -8.5453   -5.3975    8.3532 C   0  0  0  0  0  0
   -7.2961   -5.1829    9.2215 C   0  0  0  0  0  0
   -7.8644   -5.1881   10.6362 C   0  0  0  0  0  0
   -9.1305   -4.3095   10.5377 C   0  0  0  0  0  0
   -9.9738   -4.5683   11.7823 C   0  0  0  0  0  0
   -9.1779   -4.2789   13.0705 C   0  0  0  0  0  0
   -7.7975   -4.9891   13.1306 C   0  0  0  0  0  0
   -6.9534   -4.6636   14.3614 C   0  0  0  0  0  0
   -7.5506   -4.3911   15.6020 C   0  0  0  0  0  0
   -6.7758   -4.1366   16.7376 C   0  0  0  0  0  0
   -5.3855   -4.1598   16.6704 C   0  0  0  0  0  0
   -4.7468   -3.8901   17.8485 O   0  0  0  0  0  0
   -3.3203   -3.9031   17.8243 C   0  0  0  0  0  0
   -4.7754   -4.4501   15.4523 C   0  0  0  0  0  0
   -5.5449   -4.7176   14.3007 C   0  0  0  0  0  0
   -4.8041   -5.0032   13.0136 C   0  0  0  0  0  0
   -5.6827   -5.5630   11.8984 C   0  0  0  0  0  0
   -6.9871   -4.7687   11.8155 C   0  0  0  0  0  0
   -8.8897   -2.8012   10.3355 C   0  0  0  0  0  0
   -8.4765   -4.8543    7.4082 H   0  0  0  0  0  0
   -8.7250   -6.4623    8.1792 H   0  0  0  0  0  0
   -6.8092   -4.2310    8.9838 H   0  0  0  0  0  0
   -6.5651   -5.9807    9.0582 H   0  0  0  0  0  0
   -8.1727   -6.2311   10.8248 H   0  0  0  0  0  0
  -10.3133   -5.6123   11.7966 H   0  0  0  0  0  0
  -10.8847   -3.9575   11.7675 H   0  0  0  0  0  0
   -9.8031   -4.5959   13.9133 H   0  0  0  0  0  0
   -9.0395   -3.1964   13.1828 H   0  0  0  0  0  0
   -8.0110   -6.0663   13.2116 H   0  0  0  0  0  0
   -8.6323   -4.3770   15.7177 H   0  0  0  0  0  0
   -7.2723   -3.9224   17.6829 H   0  0  0  0  0  0
   -2.9686   -3.6695   18.8337 H   0  0  0  0  0  0
   -2.9315   -3.1343   17.1486 H   0  0  0  0  0  0
   -2.9406   -4.8955   17.5595 H   0  0  0  0  0  0
   -3.6918   -4.4789   15.3610 H   0  0  0  0  0  0
   -3.9885   -5.7109   13.2047 H   0  0  0  0  0  0
   -4.3513   -4.0631   12.6729 H   0  0  0  0  0  0
   -5.8985   -6.6223   12.0886 H   0  0  0  0  0  0
   -5.1274   -5.5147   10.9552 H   0  0  0  0  0  0
   -6.7223   -3.7080   11.7178 H   0  0  0  0  0  0
   -8.3582   -2.3392   11.1715 H   0  0  0  0  0  0
   -9.8474   -2.2771   10.2301 H   0  0  0  0  0  0
   -8.3205   -2.5871    9.4247 H   0  0  0  0  0  0
  1  2  2  0  0  0
  2  3  1  0  0  0
  2  6  1  0  0  0
  3  4  1  0  0  0
  3 22  1  0  0  0
  3 23  1  0  0  0
  4  5  1  0  0  0
  4 24  1  0  0  0
  4 25  1  0  0  0
  5  6  1  0  0  0
  5 20  1  0  0  0
  5 26  1  0  0  0
  6  7  1  0  0  0
  6 21  1  0  0  0
  7  8  1  0  0  0
  7 27  1  0  0  0
  7 28  1  0  0  0
  8  9  1  0  0  0
  8 29  1  0  0  0
  8 30  1  0  0  0
  9 10  1  0  0  0
  9 20  1  0  0  0
  9 31  1  0  0  0
 10 11  2  0  0  0
 10 17  1  0  0  0
 11 12  1  0  0  0
 11 32  1  0  0  0
 12 13  2  0  0  0
 12 33  1  0  0  0
 13 14  1  0  0  0
 13 16  1  0  0  0
 14 15  1  0  0  0
 15 34  1  0  0  0
 15 35  1  0  0  0
 15 36  1  0  0  0
 16 17  2  0  0  0
 16 37  1  0  0  0
 17 18  1  0  0  0
 18 19  1  0  0  0
 18 38  1  0  0  0
 18 39  1  0  0  0
 19 20  1  0  0  0
 19 40  1  0  0  0
 19 41  1  0  0  0
 20 42  1  0  0  0
 21 43  1  0  0  0
 21 44  1  0  0  0
 21 45  1  0  0  0
M  END
>  <Name>
tox-290

>  <substance>
Estrone 3-methyl ether

>  <CASRN>
1624-62-0

>  <from_NCI>
1

>  <RBA>
0.000000

>  <method>
RUC

>  <chemical_class>
Steroid, nonphenolic

>  <set>
0

$$$$
tox-291
  Cerius2 12190218263D 1   1.00000                          
 Structure written by MMmdl.
 46 49  0  0  0  0  0  0  0  0999 V2000
    1.6874    0.4433   -0.3813 C   0  0  0  0  0  0
    0.3245    1.1749   -0.1735 C   0  0  0  0  0  0
    2.7765    1.5010   -0.5583 C   0  0  0  0  0  0
    1.5685   -0.4954   -1.5830 C   0  0  0  0  0  0
   -0.8278    0.1778   -0.0681 C   0  0  0  0  0  0
    0.4089    2.2107    0.9812 C   0  0  0  0  0  0
    2.9224    2.3740    0.7072 C   0  0  0  0  0  0
    4.2042    1.0799   -0.8874 C   0  0  0  0  0  0
    0.5582   -1.5990   -1.2815 C   0  0  0  0  0  0
   -0.7157   -1.1080   -0.6337 C   0  0  0  0  0  0
   -2.0554    0.5401    0.5110 C   0  0  0  0  0  0
    1.6240    3.1546    0.8859 C   0  0  0  0  0  0
    4.1499    3.1672    0.2850 C   0  0  0  0  0  0
    4.9927    2.3867   -0.7114 C   0  0  0  0  0  0
   -1.8005   -2.0012   -0.5589 C   0  0  0  0  0  0
   -3.1306   -0.3554    0.5708 C   0  0  0  0  0  0
    4.4473    4.2823    0.7059 O   0  0  0  0  0  0
   -3.0071   -1.6328    0.0402 C   0  0  0  0  0  0
   -3.9751   -2.6047    0.0345 O   0  0  0  0  0  0
   -5.4669   -2.4395    0.6722 S   0  0  0  0  0  0
   -6.1036   -3.7341    0.4235 O   0  0  0  0  0  0
   -5.2738   -2.1704    2.0963 O   0  0  0  0  0  0
   -6.1046   -1.3475   -0.0619 O   0  0  0  0  0  0
    3.3023    1.6275    2.0004 C   0  0  0  0  0  0
    1.9134   -0.1734    0.4982 H   0  0  0  0  0  0
    0.1157    1.7521   -1.0878 H   0  0  0  0  0  0
    2.4598    2.1455   -1.3968 H   0  0  0  0  0  0
    2.5325   -0.9569   -1.8238 H   0  0  0  0  0  0
    1.2529    0.0678   -2.4707 H   0  0  0  0  0  0
    0.4241    1.6864    1.9446 H   0  0  0  0  0  0
   -0.4883    2.8405    0.9903 H   0  0  0  0  0  0
    4.3060    0.6967   -1.9075 H   0  0  0  0  0  0
    4.5664    0.3054   -0.2028 H   0  0  0  0  0  0
    1.0189   -2.3288   -0.6034 H   0  0  0  0  0  0
    0.3214   -2.1220   -2.2160 H   0  0  0  0  0  0
   -2.2091    1.5349    0.9250 H   0  0  0  0  0  0
    1.6710    3.7857    1.7818 H   0  0  0  0  0  0
    1.4793    3.8424    0.0423 H   0  0  0  0  0  0
    5.0390    2.9474   -1.6494 H   0  0  0  0  0  0
    5.9945    2.2022   -0.3177 H   0  0  0  0  0  0
   -1.6999   -3.0025   -0.9787 H   0  0  0  0  0  0
   -4.0508   -0.0138    1.0376 H   0  0  0  0  0  0
    3.4287    2.3406    2.8242 H   0  0  0  0  0  0
    4.2528    1.0912    1.9096 H   0  0  0  0  0  0
    2.5448    0.9037    2.3120 H   0  0  0  0  0  0
   -6.8955   -3.7244    0.7323 H   0  0  0  0  0  0
  1  2  1  0  0  0
  1  3  1  0  0  0
  1  4  1  0  0  0
  1 25  1  0  0  0
  2  5  1  0  0  0
  2  6  1  0  0  0
  2 26  1  0  0  0
  3  7  1  0  0  0
  3  8  1  0  0  0
  3 27  1  0  0  0
  4  9  1  0  0  0
  4 28  1  0  0  0
  4 29  1  0  0  0
  5 10  2  0  0  0
  5 11  1  0  0  0
  6 12  1  0  0  0
  6 30  1  0  0  0
  6 31  1  0  0  0
  7 12  1  0  0  0
  7 13  1  0  0  0
  7 24  1  0  0  0
  8 14  1  0  0  0
  8 32  1  0  0  0
  8 33  1  0  0  0
  9 10  1  0  0  0
  9 34  1  0  0  0
  9 35  1  0  0  0
 10 15  1  0  0  0
 11 16  2  0  0  0
 11 36  1  0  0  0
 12 37  1  0  0  0
 12 38  1  0  0  0
 13 14  1  0  0  0
 13 17  2  0  0  0
 14 39  1  0  0  0
 14 40  1  0  0  0
 15 18  2  0  0  0
 15 41  1  0  0  0
 16 18  1  0  0  0
 16 42  1  0  0  0
 18 19  1  0  0  0
 19 20  1  0  0  0
 20 21  1  0  0  0
 20 22  2  0  0  0
 20 23  2  0  0  0
 21 46  1  0  0  0
 24 43  1  0  0  0
 24 44  1  0  0  0
 24 45  1  0  0  0
M  END
>  <Name>
tox-291

>  <substance>
Estrone-3-sulfate

>  <CASRN>
481-97-0

>  <from_NCI>
1

>  <RBA>
0.000000

>  <method>
hERa

>  <chemical_class>
Steroid, nonphenolic

>  <set>
2

$$$$
tox-292
  Cerius2 12190218263D 1   1.00000                          
 Structure written by MMmdl.
 46 49  0  0  0  0  0  0  0  0999 V2000
    2.0872    0.2336   -0.1390 C   0  0  0  0  0  0
    1.9655    1.5322    0.7107 C   0  0  0  0  0  0
    0.8802   -0.6988    0.0071 C   0  0  0  0  0  0
    3.4717   -0.3040    0.2167 C   0  0  0  0  0  0
    3.3733    2.1862    0.4081 C   0  0  0  0  0  0
    0.7046    2.2835    0.2233 C   0  0  0  0  0  0
    1.7854    1.2156    2.2356 C   0  0  0  0  0  0
   -0.3985    0.0513   -0.4719 C   0  0  0  0  0  0
    1.0322   -1.9870   -0.8074 C   0  0  0  0  0  0
    4.3293    0.9551    0.4954 C   0  0  0  0  0  0
    3.4603    2.7807   -0.9498 C   0  0  0  0  0  0
    3.7488    3.1260    1.2580 O   0  0  0  0  0  0
   -0.5628    1.4061    0.2639 C   0  0  0  0  0  0
   -1.6223   -0.8605   -0.4310 C   0  0  0  0  0  0
   -0.1300   -2.9312   -0.5100 C   0  0  0  0  0  0
    3.5325    3.2355   -2.0618 C   0  0  0  0  0  0
   -1.4831   -2.2564   -0.4938 C   0  0  0  0  0  0
   -2.9229   -0.3463   -0.4215 C   0  0  0  0  0  0
   -2.6339   -3.0829   -0.4913 C   0  0  0  0  0  0
   -4.0456   -1.1943   -0.4294 C   0  0  0  0  0  0
   -3.9530   -2.5944   -0.4594 C   0  0  0  0  0  0
   -4.9722   -3.3548   -0.4616 O   0  0  0  0  0  0
    2.1300    0.5095   -1.2045 H   0  0  0  0  0  0
    0.7655   -0.9917    1.0581 H   0  0  0  0  0  0
    3.8976   -0.8946   -0.6011 H   0  0  0  0  0  0
    3.4391   -0.9449    1.1049 H   0  0  0  0  0  0
    0.8331    2.6231   -0.8110 H   0  0  0  0  0  0
    0.5428    3.1856    0.8258 H   0  0  0  0  0  0
    1.6739    2.1436    2.8086 H   0  0  0  0  0  0
    2.6402    0.6753    2.6541 H   0  0  0  0  0  0
    0.8985    0.6146    2.4488 H   0  0  0  0  0  0
   -0.2618    0.2936   -1.5373 H   0  0  0  0  0  0
    1.9715   -2.4989   -0.5709 H   0  0  0  0  0  0
    1.0575   -1.7528   -1.8795 H   0  0  0  0  0  0
    5.1554    1.0146   -0.2256 H   0  0  0  0  0  0
    4.7912    0.8437    1.4867 H   0  0  0  0  0  0
   -1.3685    1.9896   -0.1970 H   0  0  0  0  0  0
   -0.8722    1.2340    1.3014 H   0  0  0  0  0  0
    0.0263   -3.3912    0.4742 H   0  0  0  0  0  0
   -0.1264   -3.7365   -1.2544 H   0  0  0  0  0  0
    3.5964    3.6398   -3.0473 H   0  0  0  0  0  0
   -3.1062    0.7262   -0.4151 H   0  0  0  0  0  0
   -2.4775   -4.1666   -0.5175 H   0  0  0  0  0  0
   -5.0308   -0.7187   -0.4143 H   0  0  0  0  0  0
    4.5104    3.4266    1.0297 H   0  0  0  0  0  0
   -5.6784   -2.8822   -0.4395 H   0  0  0  0  0  0
  1  2  1  0  0  0
  1  3  1  0  0  0
  1  4  1  0  0  0
  1 23  1  0  0  0
  2  5  1  0  0  0
  2  6  1  0  0  0
  2  7  1  0  0  0
  3  8  1  0  0  0
  3  9  1  0  0  0
  3 24  1  0  0  0
  4 10  1  0  0  0
  4 25  1  0  0  0
  4 26  1  0  0  0
  5 10  1  0  0  0
  5 11  1  0  0  0
  5 12  1  0  0  0
  6 13  1  0  0  0
  6 27  1  0  0  0
  6 28  1  0  0  0
  7 29  1  0  0  0
  7 30  1  0  0  0
  7 31  1  0  0  0
  8 13  1  0  0  0
  8 14  1  0  0  0
  8 32  1  0  0  0
  9 15  1  0  0  0
  9 33  1  0  0  0
  9 34  1  0  0  0
 10 35  1  0  0  0
 10 36  1  0  0  0
 11 16  3  0  0  0
 12 45  1  0  0  0
 13 37  1  0  0  0
 13 38  1  0  0  0
 14 17  2  0  0  0
 14 18  1  0  0  0
 15 17  1  0  0  0
 15 39  1  0  0  0
 15 40  1  0  0  0
 16 41  1  0  0  0
 17 19  1  0  0  0
 18 20  2  0  0  0
 18 42  1  0  0  0
 19 21  2  0  0  0
 19 43  1  0  0  0
 20 21  1  0  0  0
 20 44  1  0  0  0
 21 22  1  0  0  0
 22 46  1  0  0  0
M  END
>  <Name>
tox-292

>  <substance>
17a-Ethinyl estradiol

>  <CASRN>
57-63-6

>  <from_NCI>
1

>  <RBA>
250.000000

>  <method>
GST-hERadef,GST-mERadef,RBC,RUC,RUC,RUC,RUC

>  <chemical_class>
Steroid, phenolic

>  <set>
1

$$$$
tox-293
  Cerius2 12190218263D 1   1.00000                          
 Structure written by MMmdl.
 46 49  0  0  0  0  0  0  0  0999 V2000
   -4.1892   -1.8901   -1.3900 C   0  0  0  0  0  0
   -4.0593   -0.4930   -1.3671 C   0  0  0  0  0  0
   -2.8166    0.1668   -1.3470 C   0  0  0  0  0  0
   -2.9637   -2.5814   -1.4017 C   0  0  0  0  0  0
   -1.6966   -1.9473   -1.3918 C   0  0  0  0  0  0
   -0.4675   -2.8279   -1.3874 C   0  0  0  0  0  0
    0.8323   -2.0813   -1.6768 C   0  0  0  0  0  0
    0.8785   -0.7804   -0.8694 C   0  0  0  0  0  0
    2.2216   -0.0544   -1.0046 C   0  0  0  0  0  0
    3.4926   -0.8001   -0.6071 C   0  0  0  0  0  0
    4.5479    0.3126   -0.3846 C   0  0  0  0  0  0
    3.8031    1.6894   -0.4125 C   0  0  0  0  0  0
    4.3336    2.6037    0.6198 C   0  0  0  0  0  0
    4.7648    3.3294    1.4776 C   0  0  0  0  0  0
    2.2976    1.2582   -0.1722 C   0  0  0  0  0  0
    2.0589    0.9944    1.3550 C   0  0  0  0  0  0
    1.1699    2.1958   -0.6648 C   0  0  0  0  0  0
   -0.2178    1.5250   -0.6293 C   0  0  0  0  0  0
   -0.2605    0.1603   -1.3639 C   0  0  0  0  0  0
   -1.6137   -0.5467   -1.3364 C   0  0  0  0  0  0
   -5.3157   -2.4797   -1.4033 O   0  0  0  0  0  0
    4.0260    2.2733   -1.5827 O   0  0  0  0  0  0
   -4.9569    0.1327   -1.3677 H   0  0  0  0  0  0
   -2.8282    1.2548   -1.3479 H   0  0  0  0  0  0
   -2.9805   -3.6763   -1.4216 H   0  0  0  0  0  0
   -0.5830   -3.6294   -2.1270 H   0  0  0  0  0  0
   -0.3966   -3.2991   -0.3987 H   0  0  0  0  0  0
    0.9048   -1.8602   -2.7495 H   0  0  0  0  0  0
    1.6762   -2.7342   -1.4281 H   0  0  0  0  0  0
    0.7075   -1.0463    0.1811 H   0  0  0  0  0  0
    2.3301    0.1987   -2.0714 H   0  0  0  0  0  0
    3.8173   -1.4955   -1.3881 H   0  0  0  0  0  0
    3.3496   -1.3792    0.3120 H   0  0  0  0  0  0
    5.3423    0.2314   -1.1396 H   0  0  0  0  0  0
    5.0329    0.1356    0.5850 H   0  0  0  0  0  0
    5.1470    3.9739    2.2375 H   0  0  0  0  0  0
    2.0415    1.9387    1.9115 H   0  0  0  0  0  0
    2.8394    0.3683    1.7988 H   0  0  0  0  0  0
    1.1059    0.5025    1.5625 H   0  0  0  0  0  0
    1.3578    2.5066   -1.7000 H   0  0  0  0  0  0
    1.1479    3.1142   -0.0657 H   0  0  0  0  0  0
   -0.9213    2.2259   -1.0936 H   0  0  0  0  0  0
   -0.5540    1.4032    0.4071 H   0  0  0  0  0  0
   -0.0750    0.3757   -2.4277 H   0  0  0  0  0  0
   -5.1950   -3.3210   -1.4164 H   0  0  0  0  0  0
    3.6249    3.0223   -1.6066 H   0  0  0  0  0  0
  1  2  2  0  0  0
  1  4  1  0  0  0
  1 21  1  0  0  0
  2  3  1  0  0  0
  2 23  1  0  0  0
  3 20  2  0  0  0
  3 24  1  0  0  0
  4  5  2  0  0  0
  4 25  1  0  0  0
  5  6  1  0  0  0
  5 20  1  0  0  0
  6  7  1  0  0  0
  6 26  1  0  0  0
  6 27  1  0  0  0
  7  8  1  0  0  0
  7 28  1  0  0  0
  7 29  1  0  0  0
  8  9  1  0  0  0
  8 19  1  0  0  0
  8 30  1  0  0  0
  9 10  1  0  0  0
  9 15  1  0  0  0
  9 31  1  0  0  0
 10 11  1  0  0  0
 10 32  1  0  0  0
 10 33  1  0  0  0
 11 12  1  0  0  0
 11 34  1  0  0  0
 11 35  1  0  0  0
 12 13  1  0  0  0
 12 15  1  0  0  0
 12 22  1  0  0  0
 13 14  3  0  0  0
 14 36  1  0  0  0
 15 16  1  0  0  0
 15 17  1  0  0  0
 16 37  1  0  0  0
 16 38  1  0  0  0
 16 39  1  0  0  0
 17 18  1  0  0  0
 17 40  1  0  0  0
 17 41  1  0  0  0
 18 19  1  0  0  0
 18 42  1  0  0  0
 18 43  1  0  0  0
 19 20  1  0  0  0
 19 44  1  0  0  0
 21 45  1  0  0  0
 22 46  1  0  0  0
M  END
>  <Name>
tox-293

>  <substance>
17b-Ethinyl estradiol

>  <CASRN>
4717-38-8

>  <from_NCI>
1

>  <RBA>
190.000000

>  <method>
RUC

>  <chemical_class>
Steroid, phenolic

>  <set>
0

$$$$
tox-294
  Cerius2 12190218263D 1   1.00000                          
 Structure written by MMmdl.
 25 25  0  0  0  0  0  0  0  0999 V2000
   -2.1789    0.3111   -1.1807 C   0  0  0  0  0  0
   -0.9627    1.1366   -1.2342 C   0  0  0  0  0  0
   -2.1433   -1.0868   -1.0837 C   0  0  0  0  0  0
   -3.4257    0.9439   -1.2843 C   0  0  0  0  0  0
    0.1950    0.8228   -0.6319 C   0  0  0  0  0  0
   -3.3272   -1.8304   -1.0643 C   0  0  0  0  0  0
   -4.6091    0.2005   -1.2644 C   0  0  0  0  0  0
    1.3580    1.7271   -0.7367 C   0  0  0  0  0  0
   -4.5593   -1.1866   -1.1518 C   0  0  0  0  0  0
    2.3825    1.1813   -0.0337 O   0  0  0  0  0  0
    1.3840    2.7825   -1.3527 O   0  0  0  0  0  0
    3.5914    1.9550   -0.0435 C   0  0  0  0  0  0
    4.6299    1.2212    0.7819 C   0  0  0  0  0  0
   -1.0512    2.0680   -1.7926 H   0  0  0  0  0  0
   -1.1967   -1.6218   -1.0319 H   0  0  0  0  0  0
   -3.4907    2.0279   -1.3751 H   0  0  0  0  0  0
    0.3291   -0.0776   -0.0445 H   0  0  0  0  0  0
   -3.2848   -2.9155   -0.9859 H   0  0  0  0  0  0
   -5.5699    0.7070   -1.3388 H   0  0  0  0  0  0
   -5.4804   -1.7666   -1.1377 H   0  0  0  0  0  0
    3.4002    2.9421    0.3919 H   0  0  0  0  0  0
    3.9472    2.0681   -1.0737 H   0  0  0  0  0  0
    5.5729    1.7744    0.8041 H   0  0  0  0  0  0
    4.8146    0.2234    0.3703 H   0  0  0  0  0  0
    4.2773    1.0815    1.8091 H   0  0  0  0  0  0
  1  2  1  0  0  0
  1  3  2  0  0  0
  1  4  1  0  0  0
  2  5  2  0  0  0
  2 14  1  0  0  0
  3  6  1  0  0  0
  3 15  1  0  0  0
  4  7  2  0  0  0
  4 16  1  0  0  0
  5  8  1  0  0  0
  5 17  1  0  0  0
  6  9  2  0  0  0
  6 18  1  0  0  0
  7  9  1  0  0  0
  7 19  1  0  0  0
  8 10  1  0  0  0
  8 11  2  0  0  0
  9 20  1  0  0  0
 10 12  1  0  0  0
 12 13  1  0  0  0
 12 21  1  0  0  0
 12 22  1  0  0  0
 13 23  1  0  0  0
 13 24  1  0  0  0
 13 25  1  0  0  0
M  END
>  <Name>
tox-294

>  <substance>
Ethyl cinnamate

>  <CASRN>
103-36-6

>  <from_NCI>
1

>  <RBA>
0.000000

>  <method>
RUC

>  <chemical_class>
Phenylalkene

>  <set>
2

$$$$
tox-295
  Cerius2 12190218263D 1   1.00000                          
 Structure written by MMmdl.
 35 37  0  0  0  0  0  0  0  0999 V2000
    1.0111   -1.7828    0.5019 C   0  0  0  0  0  0
    0.1871   -0.6311   -0.0459 C   0  0  0  0  0  0
    0.9065    0.5054   -0.1870 C   0  0  0  0  0  0
    2.2746    0.2113    0.2564 C   0  0  0  0  0  0
    3.3943    1.0260    0.3325 C   0  0  0  0  0  0
    4.5930    0.4768    0.8017 C   0  0  0  0  0  0
    4.6517   -0.8672    1.1885 C   0  0  0  0  0  0
    3.5310   -1.6904    1.1220 C   0  0  0  0  0  0
    2.3509   -1.1307    0.6544 C   0  0  0  0  0  0
   -1.2394   -0.8275   -0.3248 C   0  0  0  0  0  0
   -2.0890   -1.3537    0.6583 C   0  0  0  0  0  0
   -3.4465   -1.5572    0.3927 C   0  0  0  0  0  0
   -3.9580   -1.2411   -0.8597 C   0  0  0  0  0  0
   -3.1334   -0.7264   -1.8528 C   0  0  0  0  0  0
   -1.7759   -0.5235   -1.5840 C   0  0  0  0  0  0
   -5.2862   -1.4534   -1.0824 O   0  0  0  0  0  0
    5.8487   -1.3450    1.6383 O   0  0  0  0  0  0
    0.4751    1.8717   -0.6195 C   0  0  0  0  0  0
    0.9441    2.2253   -2.0249 C   0  0  0  0  0  0
    1.0585   -2.6109   -0.2123 H   0  0  0  0  0  0
    0.6425   -2.1271    1.4727 H   0  0  0  0  0  0
    3.3576    2.0709    0.0384 H   0  0  0  0  0  0
    5.4818    1.1014    0.8659 H   0  0  0  0  0  0
    3.5661   -2.7322    1.4255 H   0  0  0  0  0  0
   -1.7092   -1.5995    1.6487 H   0  0  0  0  0  0
   -4.0951   -1.9604    1.1671 H   0  0  0  0  0  0
   -3.5226   -0.4819   -2.8383 H   0  0  0  0  0  0
   -1.1391   -0.1367   -2.3772 H   0  0  0  0  0  0
   -5.4923   -1.1844   -2.0032 H   0  0  0  0  0  0
    5.7360   -2.2917    1.8707 H   0  0  0  0  0  0
    0.8502    2.6200    0.0893 H   0  0  0  0  0  0
   -0.6169    1.9576   -0.5828 H   0  0  0  0  0  0
    0.5748    3.2174   -2.3043 H   0  0  0  0  0  0
    0.5726    1.5082   -2.7635 H   0  0  0  0  0  0
    2.0361    2.2453   -2.0945 H   0  0  0  0  0  0
  1  2  1  0  0  0
  1  9  1  0  0  0
  1 20  1  0  0  0
  1 21  1  0  0  0
  2  3  2  0  0  0
  2 10  1  0  0  0
  3  4  1  0  0  0
  3 18  1  0  0  0
  4  5  2  0  0  0
  4  9  1  0  0  0
  5  6  1  0  0  0
  5 22  1  0  0  0
  6  7  2  0  0  0
  6 23  1  0  0  0
  7  8  1  0  0  0
  7 17  1  0  0  0
  8  9  2  0  0  0
  8 24  1  0  0  0
 10 11  2  0  0  0
 10 15  1  0  0  0
 11 12  1  0  0  0
 11 25  1  0  0  0
 12 13  2  0  0  0
 12 26  1  0  0  0
 13 14  1  0  0  0
 13 16  1  0  0  0
 14 15  2  0  0  0
 14 27  1  0  0  0
 15 28  1  0  0  0
 16 29  1  0  0  0
 17 30  1  0  0  0
 18 19  1  0  0  0
 18 31  1  0  0  0
 18 32  1  0  0  0
 19 33  1  0  0  0
 19 34  1  0  0  0
 19 35  1  0  0  0
M  END
>  <Name>
tox-295

>  <substance>
3-Ethyl-6,4'-dihydroxy-2- phenylindene

>  <CASRN>


>  <from_NCI>
0

>  <RBA>
16.000000

>  <method>
RUC

>  <chemical_class>
Indene

>  <set>
0

$$$$
tox-296
  Cerius2 12190218263D 1   1.00000                          
 Structure written by MMmdl.
 40 40  0  0  0  0  0  0  0  0999 V2000
   -3.0194   -2.5730   -4.0167 O   0  0  0  0  0  0
   -2.3125   -1.8239   -3.3491 C   0  0  0  0  0  0
   -1.2155   -2.2765   -2.6916 O   0  0  0  0  0  0
   -0.5149   -1.4684   -1.7169 C   0  0  0  0  0  0
    0.4911   -2.3552   -0.9568 C   0  0  0  0  0  0
    1.1651   -1.5240    0.1545 C   0  0  0  0  0  0
    2.1119   -2.3344    1.0444 C   0  0  0  0  0  0
    2.6339   -1.4911    2.2087 C   0  0  0  0  0  0
    3.5805   -2.2875    3.0924 C   0  0  0  0  0  0
    1.4824   -3.0674   -1.9045 C   0  0  0  0  0  0
    2.4301   -2.1466   -2.6603 C   0  0  0  0  0  0
   -2.6344   -0.3886   -3.2440 C   0  0  0  0  0  0
   -1.8781    0.5542   -3.9325 C   0  0  0  0  0  0
   -2.2189    1.9127   -3.8399 C   0  0  0  0  0  0
   -3.3126    2.3839   -3.0829 C   0  0  0  0  0  0
   -3.6113    3.6174   -3.0069 O   0  0  0  0  0  0
   -4.0527    1.3814   -2.4207 C   0  0  0  0  0  0
   -3.7346    0.0164   -2.4962 C   0  0  0  0  0  0
   -1.2404   -1.0518   -1.0087 H   0  0  0  0  0  0
    0.0053   -0.6523   -2.2273 H   0  0  0  0  0  0
   -0.0893   -3.1546   -0.4747 H   0  0  0  0  0  0
    0.3796   -1.0897    0.7870 H   0  0  0  0  0  0
    1.7078   -0.6770   -0.2826 H   0  0  0  0  0  0
    2.9640   -2.6954    0.4579 H   0  0  0  0  0  0
    1.5869   -3.2143    1.4352 H   0  0  0  0  0  0
    1.7942   -1.1316    2.8148 H   0  0  0  0  0  0
    3.1578   -0.6086    1.8235 H   0  0  0  0  0  0
    3.9410   -1.6662    3.9182 H   0  0  0  0  0  0
    4.4493   -2.6346    2.5241 H   0  0  0  0  0  0
    3.0772   -3.1611    3.5190 H   0  0  0  0  0  0
    0.9227   -3.6639   -2.6353 H   0  0  0  0  0  0
    2.0766   -3.7911   -1.3345 H   0  0  0  0  0  0
    3.0897   -2.7399   -3.3024 H   0  0  0  0  0  0
    3.0640   -1.5722   -1.9791 H   0  0  0  0  0  0
    1.8864   -1.4486   -3.3031 H   0  0  0  0  0  0
   -1.0287    0.2523   -4.5413 H   0  0  0  0  0  0
   -1.5975    2.6251   -4.3905 H   0  0  0  0  0  0
   -4.9211    1.6621   -1.8173 H   0  0  0  0  0  0
   -4.3482   -0.7104   -1.9685 H   0  0  0  0  0  0
   -4.2946    3.7134   -2.5105 H   0  0  0  0  0  0
  1  2  2  0  0  0
  2  3  1  0  0  0
  2 12  1  0  0  0
  3  4  1  0  0  0
  4  5  1  0  0  0
  4 19  1  0  0  0
  4 20  1  0  0  0
  5  6  1  0  0  0
  5 10  1  0  0  0
  5 21  1  0  0  0
  6  7  1  0  0  0
  6 22  1  0  0  0
  6 23  1  0  0  0
  7  8  1  0  0  0
  7 24  1  0  0  0
  7 25  1  0  0  0
  8  9  1  0  0  0
  8 26  1  0  0  0
  8 27  1  0  0  0
  9 28  1  0  0  0
  9 29  1  0  0  0
  9 30  1  0  0  0
 10 11  1  0  0  0
 10 31  1  0  0  0
 10 32  1  0  0  0
 11 33  1  0  0  0
 11 34  1  0  0  0
 11 35  1  0  0  0
 12 13  2  0  0  0
 12 18  1  0  0  0
 13 14  1  0  0  0
 13 36  1  0  0  0
 14 15  2  0  0  0
 14 37  1  0  0  0
 15 16  1  0  0  0
 15 17  1  0  0  0
 16 40  1  0  0  0
 17 18  2  0  0  0
 17 38  1  0  0  0
 18 39  1  0  0  0
M  END
>  <Name>
tox-296

>  <substance>
2-Ethylhexyl paraben

>  <CASRN>
5153-25-3

>  <from_NCI>
1

>  <RBA>
0.020000

>  <method>
RUC

>  <chemical_class>
Paraben

>  <set>
0

$$$$
tox-297
  Cerius2 12190218263D 1   1.00000                          
 Structure written by MMmdl.
 38 40  0  0  0  0  0  0  0  0999 V2000
   -1.6920   -0.1178   -0.0417 C   0  0  0  0  0  0
   -0.5782    0.3993    0.5311 C   0  0  0  0  0  0
   -2.9845    0.5643    0.1914 C   0  0  0  0  0  0
   -1.6777   -1.3467   -0.9397 C   0  0  0  0  0  0
    0.7464   -0.2264    0.3310 C   0  0  0  0  0  0
   -0.6274    1.6135    1.3977 C   0  0  0  0  0  0
   -3.0224    1.6937    0.9957 C   0  0  0  0  0  0
   -4.2065    0.1579   -0.3469 C   0  0  0  0  0  0
   -2.0978   -2.6166   -0.2080 C   0  0  0  0  0  0
    1.5793    0.1980   -0.7121 C   0  0  0  0  0  0
    1.1839   -1.2493    1.1790 C   0  0  0  0  0  0
   -1.8616    2.2071    1.5935 O   0  0  0  0  0  0
    0.3763    2.0876    1.9304 O   0  0  0  0  0  0
   -4.2115    2.3970    1.2640 C   0  0  0  0  0  0
   -5.3985    0.8640   -0.0771 C   0  0  0  0  0  0
    2.8324   -0.3953   -0.9083 C   0  0  0  0  0  0
    2.4353   -1.8392    0.9793 C   0  0  0  0  0  0
   -5.4537    2.0094    0.7364 C   0  0  0  0  0  0
    3.2653   -1.4173   -0.0629 C   0  0  0  0  0  0
   -6.5329    2.6382    0.9729 O   0  0  0  0  0  0
    4.4607   -2.0766   -0.1465 O   0  0  0  0  0  0
    5.3404   -1.6794   -1.1974 C   0  0  0  0  0  0
   -0.6838   -1.5171   -1.3679 H   0  0  0  0  0  0
   -2.3144   -1.1892   -1.8182 H   0  0  0  0  0  0
   -4.2865   -0.7155   -0.9899 H   0  0  0  0  0  0
   -2.0620   -3.4711   -0.8916 H   0  0  0  0  0  0
   -3.1170   -2.5454    0.1835 H   0  0  0  0  0  0
   -1.4289   -2.8315    0.6314 H   0  0  0  0  0  0
    1.2600    0.9925   -1.3854 H   0  0  0  0  0  0
    0.5579   -1.5976    1.9988 H   0  0  0  0  0  0
   -4.1496    3.2770    1.9089 H   0  0  0  0  0  0
   -6.3170    0.4834   -0.5346 H   0  0  0  0  0  0
    3.4412   -0.0325   -1.7322 H   0  0  0  0  0  0
    2.7610   -2.6354    1.6468 H   0  0  0  0  0  0
    6.2417   -2.2959   -1.1272 H   0  0  0  0  0  0
    5.6416   -0.6329   -1.0836 H   0  0  0  0  0  0
    4.8879   -1.8594   -2.1781 H   0  0  0  0  0  0
   -7.1770    2.2572    0.5698 H   0  0  0  0  0  0
  1  2  2  0  0  0
  1  3  1  0  0  0
  1  4  1  0  0  0
  2  5  1  0  0  0
  2  6  1  0  0  0
  3  7  2  0  0  0
  3  8  1  0  0  0
  4  9  1  0  0  0
  4 23  1  0  0  0
  4 24  1  0  0  0
  5 10  2  0  0  0
  5 11  1  0  0  0
  6 12  1  0  0  0
  6 13  2  0  0  0
  7 12  1  0  0  0
  7 14  1  0  0  0
  8 15  2  0  0  0
  8 25  1  0  0  0
  9 26  1  0  0  0
  9 27  1  0  0  0
  9 28  1  0  0  0
 10 16  1  0  0  0
 10 29  1  0  0  0
 11 17  2  0  0  0
 11 30  1  0  0  0
 14 18  2  0  0  0
 14 31  1  0  0  0
 15 18  1  0  0  0
 15 32  1  0  0  0
 16 19  2  0  0  0
 16 33  1  0  0  0
 17 19  1  0  0  0
 17 34  1  0  0  0
 18 20  1  0  0  0
 19 21  1  0  0  0
 20 38  1  0  0  0
 21 22  1  0  0  0
 22 35  1  0  0  0
 22 36  1  0  0  0
 22 37  1  0  0  0
M  END
>  <Name>
tox-297

>  <substance>
4-Ethyl-7-hydroxy-3-(methoxyphenyl) 2H -1-benzopyran-2-one

>  <CASRN>
5219-17-0

>  <from_NCI>
1

>  <RBA>
0.900000

>  <method>
RUC

>  <chemical_class>


>  <set>
2

$$$$
tox-298
  Cerius2 12190218263D 1   1.00000                          
 Structure written by MMmdl.
 54 57  0  0  0  0  0  0  0  0999 V2000
    0.2809    6.2523   -0.9328 C   0  0  0  0  0  0
    1.2142    5.0488   -0.7768 C   0  0  0  0  0  0
    0.4343    3.7267   -0.7089 C   0  0  0  0  0  0
   -0.4292    6.2041   -2.1690 O   0  0  0  0  0  0
    1.9986    5.2147    0.4187 O   0  0  0  0  0  0
    1.3922    2.6567   -0.6282 O   0  0  0  0  0  0
    2.4952   -1.8909   -0.3116 O   0  0  0  0  0  0
    1.4816   -0.9622   -0.4004 C   0  0  0  0  0  0
    0.1336   -1.3446   -0.4165 C   0  0  0  0  0  0
   -0.2885   -2.7806   -0.4547 C   0  0  0  0  0  0
    0.3302   -3.7394    0.2937 C   0  0  0  0  0  0
    1.4304   -3.4104    1.2536 C   0  0  0  0  0  0
    2.4841   -2.5533    0.8960 C   0  0  0  0  0  0
   -0.8256   -0.3225   -0.4913 C   0  0  0  0  0  0
   -0.4505    1.0279   -0.5550 C   0  0  0  0  0  0
    0.8963    1.3844   -0.5598 C   0  0  0  0  0  0
    1.8625    0.3817   -0.4869 C   0  0  0  0  0  0
    3.5733   -2.3307    1.7455 C   0  0  0  0  0  0
    3.6070   -2.9337    2.9989 C   0  0  0  0  0  0
    2.5558   -3.7552    3.3958 C   0  0  0  0  0  0
    1.4802   -3.9922    2.5316 C   0  0  0  0  0  0
   -1.3829   -3.1968   -1.3753 C   0  0  0  0  0  0
   -1.1108   -3.4003   -2.7353 C   0  0  0  0  0  0
   -2.1333   -3.7815   -3.6068 C   0  0  0  0  0  0
   -3.4250   -3.9543   -3.1200 C   0  0  0  0  0  0
   -3.7145   -3.7521   -1.7741 C   0  0  0  0  0  0
   -2.6922   -3.3717   -0.9009 C   0  0  0  0  0  0
   -4.3963   -4.3263   -4.0024 O   0  0  0  0  0  0
   -0.0104   -5.2309    0.2193 C   0  0  0  0  0  0
    1.1068   -6.0441   -0.4282 C   0  0  0  0  0  0
    0.8609    7.1813   -0.9006 H   0  0  0  0  0  0
   -0.4416    6.2907   -0.1098 H   0  0  0  0  0  0
    1.9150    5.0087   -1.6190 H   0  0  0  0  0  0
   -0.1808    3.6070   -1.6079 H   0  0  0  0  0  0
   -0.1894    3.7176    0.1931 H   0  0  0  0  0  0
   -0.9760    7.0191   -2.1906 H   0  0  0  0  0  0
    2.4956    4.3732    0.5181 H   0  0  0  0  0  0
   -1.8886   -0.5586   -0.5056 H   0  0  0  0  0  0
   -1.2437    1.7689   -0.6095 H   0  0  0  0  0  0
    2.9186    0.6425   -0.4843 H   0  0  0  0  0  0
    4.3841   -1.6747    1.4365 H   0  0  0  0  0  0
    4.4457   -2.7560    3.6693 H   0  0  0  0  0  0
    2.5713   -4.2203    4.3803 H   0  0  0  0  0  0
    0.6790   -4.6378    2.8859 H   0  0  0  0  0  0
   -0.1022   -3.2654   -3.1222 H   0  0  0  0  0  0
   -1.9160   -3.9403   -4.6604 H   0  0  0  0  0  0
   -4.7224   -3.8842   -1.3882 H   0  0  0  0  0  0
   -2.9211   -3.2130    0.1517 H   0  0  0  0  0  0
   -5.2435   -4.4059   -3.5141 H   0  0  0  0  0  0
   -0.9215   -5.4216   -0.3545 H   0  0  0  0  0  0
   -0.2330   -5.6343    1.2125 H   0  0  0  0  0  0
    0.8052   -7.0933   -0.5131 H   0  0  0  0  0  0
    2.0283   -6.0111    0.1616 H   0  0  0  0  0  0
    1.3301   -5.6753   -1.4350 H   0  0  0  0  0  0
  1  2  1  0  0  0
  1  4  1  0  0  0
  1 31  1  0  0  0
  1 32  1  0  0  0
  2  3  1  0  0  0
  2  5  1  0  0  0
  2 33  1  0  0  0
  3  6  1  0  0  0
  3 34  1  0  0  0
  3 35  1  0  0  0
  4 36  1  0  0  0
  5 37  1  0  0  0
  6 16  1  0  0  0
  7  8  1  0  0  0
  7 13  1  0  0  0
  8  9  2  0  0  0
  8 17  1  0  0  0
  9 10  1  0  0  0
  9 14  1  0  0  0
 10 11  2  0  0  0
 10 22  1  0  0  0
 11 12  1  0  0  0
 11 29  1  0  0  0
 12 13  2  0  0  0
 12 21  1  0  0  0
 13 18  1  0  0  0
 14 15  2  0  0  0
 14 38  1  0  0  0
 15 16  1  0  0  0
 15 39  1  0  0  0
 16 17  2  0  0  0
 17 40  1  0  0  0
 18 19  2  0  0  0
 18 41  1  0  0  0
 19 20  1  0  0  0
 19 42  1  0  0  0
 20 21  2  0  0  0
 20 43  1  0  0  0
 21 44  1  0  0  0
 22 23  2  0  0  0
 22 27  1  0  0  0
 23 24  1  0  0  0
 23 45  1  0  0  0
 24 25  2  0  0  0
 24 46  1  0  0  0
 25 26  1  0  0  0
 25 28  1  0  0  0
 26 27  2  0  0  0
 26 47  1  0  0  0
 27 48  1  0  0  0
 28 49  1  0  0  0
 29 30  1  0  0  0
 29 50  1  0  0  0
 29 51  1  0  0  0
 30 52  1  0  0  0
 30 53  1  0  0  0
 30 54  1  0  0  0
M  END
>  <Name>
tox-298

>  <substance>
3-[(10-Ethyl-11-(p-hydroxyphenyl)dibenzo[b,f ]oxepin-3- yl)oxy]-1,2-propanediol, hydrate (4:1)

>  <CASRN>
85850-93-7

>  <from_NCI>
0

>  <RBA>
0.900000

>  <method>
RUC

>  <chemical_class>
Triphenylethylene

>  <set>
2

$$$$
tox-299
  Cerius2 12190218263D 1   1.00000                          
 Structure written by MMmdl.
 54 57  0  0  0  0  0  0  0  0999 V2000
    0.0284    6.4208    0.2266 C   0  0  0  0  0  0
    0.9581    5.2062    0.1623 C   0  0  0  0  0  0
    0.1736    3.8852    0.1769 C   0  0  0  0  0  0
   -0.8042    6.5009   -0.9288 O   0  0  0  0  0  0
    1.8637    5.2483    1.2805 O   0  0  0  0  0  0
    1.1215    2.8116    0.0432 O   0  0  0  0  0  0
    2.5156   -2.0387   -0.2916 S   0  0  0  0  0  0
    1.2057   -0.8181   -0.1730 C   0  0  0  0  0  0
   -0.1495   -1.1844   -0.0590 C   0  0  0  0  0  0
   -0.6299   -2.5988   -0.1988 C   0  0  0  0  0  0
   -0.1079   -3.6296    0.5270 C   0  0  0  0  0  0
    0.9490   -3.4353    1.5702 C   0  0  0  0  0  0
    2.1887   -2.8242    1.2869 C   0  0  0  0  0  0
   -1.0998   -0.1616    0.1003 C   0  0  0  0  0  0
   -0.7205    1.1859    0.1441 C   0  0  0  0  0  0
    0.6197    1.5395    0.0205 C   0  0  0  0  0  0
    1.5771    0.5350   -0.1357 C   0  0  0  0  0  0
    3.1840   -2.7501    2.2725 C   0  0  0  0  0  0
    2.9534   -3.2618    3.5485 C   0  0  0  0  0  0
    1.7250   -3.8399    3.8499 C   0  0  0  0  0  0
    0.7321   -3.9250    2.8705 C   0  0  0  0  0  0
   -1.6718   -2.9065   -1.2184 C   0  0  0  0  0  0
   -1.3084   -3.0456   -2.5652 C   0  0  0  0  0  0
   -2.2787   -3.3262   -3.5297 C   0  0  0  0  0  0
   -3.6095   -3.4630   -3.1488 C   0  0  0  0  0  0
   -3.9894   -3.3232   -1.8176 C   0  0  0  0  0  0
   -3.0193   -3.0432   -0.8517 C   0  0  0  0  0  0
   -4.5276   -3.7369   -4.1195 O   0  0  0  0  0  0
   -0.5098   -5.0962    0.3471 C   0  0  0  0  0  0
    0.5600   -5.8928   -0.3932 C   0  0  0  0  0  0
    0.6198    7.3407    0.2938 H   0  0  0  0  0  0
   -0.6060    6.3756    1.1189 H   0  0  0  0  0  0
    1.5678    5.2512   -0.7480 H   0  0  0  0  0  0
   -0.5356    3.8600   -0.6582 H   0  0  0  0  0  0
   -0.3500    3.7830    1.1350 H   0  0  0  0  0  0
   -1.3398    7.3153   -0.8116 H   0  0  0  0  0  0
    2.3587    4.4007    1.2416 H   0  0  0  0  0  0
   -2.1587   -0.4001    0.1908 H   0  0  0  0  0  0
   -1.5048    1.9274    0.2709 H   0  0  0  0  0  0
    2.6265    0.8142   -0.2178 H   0  0  0  0  0  0
    4.1417   -2.2777    2.0598 H   0  0  0  0  0  0
    3.7279   -3.1961    4.3104 H   0  0  0  0  0  0
    1.5364   -4.2288    4.8492 H   0  0  0  0  0  0
   -0.2202   -4.3783    3.1418 H   0  0  0  0  0  0
   -0.2686   -2.9392   -2.8697 H   0  0  0  0  0  0
   -1.9903   -3.4356   -4.5725 H   0  0  0  0  0  0
   -5.0282   -3.4277   -1.5138 H   0  0  0  0  0  0
   -3.3193   -2.9348    0.1894 H   0  0  0  0  0  0
   -5.4115   -3.8035   -3.6990 H   0  0  0  0  0  0
   -1.4479   -5.2043   -0.2044 H   0  0  0  0  0  0
   -0.7105   -5.5720    1.3132 H   0  0  0  0  0  0
    0.2227   -6.9235   -0.5435 H   0  0  0  0  0  0
    1.4981   -5.9291    0.1699 H   0  0  0  0  0  0
    0.7668   -5.4590   -1.3772 H   0  0  0  0  0  0
  1  2  1  0  0  0
  1  4  1  0  0  0
  1 31  1  0  0  0
  1 32  1  0  0  0
  2  3  1  0  0  0
  2  5  1  0  0  0
  2 33  1  0  0  0
  3  6  1  0  0  0
  3 34  1  0  0  0
  3 35  1  0  0  0
  4 36  1  0  0  0
  5 37  1  0  0  0
  6 16  1  0  0  0
  7  8  1  0  0  0
  7 13  1  0  0  0
  8  9  2  0  0  0
  8 17  1  0  0  0
  9 10  1  0  0  0
  9 14  1  0  0  0
 10 11  2  0  0  0
 10 22  1  0  0  0
 11 12  1  0  0  0
 11 29  1  0  0  0
 12 13  2  0  0  0
 12 21  1  0  0  0
 13 18  1  0  0  0
 14 15  2  0  0  0
 14 38  1  0  0  0
 15 16  1  0  0  0
 15 39  1  0  0  0
 16 17  2  0  0  0
 17 40  1  0  0  0
 18 19  2  0  0  0
 18 41  1  0  0  0
 19 20  1  0  0  0
 19 42  1  0  0  0
 20 21  2  0  0  0
 20 43  1  0  0  0
 21 44  1  0  0  0
 22 23  2  0  0  0
 22 27  1  0  0  0
 23 24  1  0  0  0
 23 45  1  0  0  0
 24 25  2  0  0  0
 24 46  1  0  0  0
 25 26  1  0  0  0
 25 28  1  0  0  0
 26 27  2  0  0  0
 26 47  1  0  0  0
 27 48  1  0  0  0
 28 49  1  0  0  0
 29 30  1  0  0  0
 29 50  1  0  0  0
 29 51  1  0  0  0
 30 52  1  0  0  0
 30 53  1  0  0  0
 30 54  1  0  0  0
M  END
>  <Name>
tox-299

>  <substance>
3-[(10-Ethyl-11-(p-hydroxyphenyl)dibenzo[b,f ]thiepin-3- yl)oxy]-1,2-propanediol

>  <CASRN>
85850-94-8

>  <from_NCI>
0

>  <RBA>
11.000000

>  <method>
RUC

>  <chemical_class>
Triphenylethylene

>  <set>
0

$$$$
tox-300
  Cerius2 12190218263D 1   1.00000                          
 Structure written by MMmdl.
 57 60  0  0  0  0  0  0  0  0999 V2000
    0.4981    4.4702    0.7143 C   0  0  0  0  0  0
    0.7133    3.3090   -0.2641 C   0  0  0  0  0  0
    1.2080    2.0470    0.4619 C   0  0  0  0  0  0
   -0.5541    4.1879    1.6336 O   0  0  0  0  0  0
    1.6823    3.6964   -1.2561 O   0  0  0  0  0  0
    1.1542    0.9424   -0.4585 O   0  0  0  0  0  0
    3.9469   -1.2757   -0.5935 S   0  0  0  0  0  0
    2.4725   -1.6994    1.0479 C   0  0  0  0  0  0
    1.3373   -2.5966    0.6212 C   0  0  0  0  0  0
   -0.3098   -1.9702    0.5140 C   0  0  0  0  0  0
   -0.8742   -1.1386   -0.5502 C   0  0  0  0  0  0
   -0.2737   -0.4523   -2.1058 C   0  0  0  0  0  0
    1.1648    0.0168   -2.6977 C   0  0  0  0  0  0
    2.8848   -0.0228   -2.1001 C   0  0  0  0  0  0
    1.5452   -3.0197   -0.5812 C   0  0  0  0  0  0
    1.4960   -1.7590   -1.0524 C   0  0  0  0  0  0
    1.5520   -0.3137   -0.0528 C   0  0  0  0  0  0
    2.0831   -0.4462    1.1653 C   0  0  0  0  0  0
    1.2269    0.5844   -3.9927 C   0  0  0  0  0  0
    0.0866    0.6785   -4.7819 C   0  0  0  0  0  0
   -1.1439    0.2022   -4.3302 C   0  0  0  0  0  0
   -1.3178   -0.3527   -3.0490 C   0  0  0  0  0  0
   -1.1124   -2.3484    1.7107 C   0  0  0  0  0  0
   -1.1372   -1.5222    2.8419 C   0  0  0  0  0  0
   -1.8778   -1.8958    3.9653 C   0  0  0  0  0  0
   -2.5840   -3.0944    3.9572 C   0  0  0  0  0  0
   -2.5623   -3.9294    2.8440 C   0  0  0  0  0  0
   -1.8219   -3.5565    1.7192 C   0  0  0  0  0  0
   -3.2952   -3.4251    5.0732 O   0  0  0  0  0  0
   -2.3245   -0.6285   -0.3035 C   0  0  0  0  0  0
   -2.4086    0.8805   -0.1033 C   0  0  0  0  0  0
    0.2411    5.3815    0.1630 H   0  0  0  0  0  0
    1.4158    4.6769    1.2761 H   0  0  0  0  0  0
   -0.2192    3.0760   -0.7903 H   0  0  0  0  0  0
    0.5697    1.8273    1.3246 H   0  0  0  0  0  0
    2.2462    2.2051    0.7775 H   0  0  0  0  0  0
   -0.6350    4.9869    2.1977 H   0  0  0  0  0  0
    1.2621    4.4090   -1.7821 H   0  0  0  0  0  0
    3.4536   -0.3337   -2.9856 H   0  0  0  0  0  0
    3.1624    1.0073   -1.8439 H   0  0  0  0  0  0
    1.1594   -3.8612   -1.1281 H   0  0  0  0  0  0
    1.3769   -1.8721   -2.1288 H   0  0  0  0  0  0
    2.3704    0.2644    1.9088 H   0  0  0  0  0  0
    2.1712    0.9416   -4.4014 H   0  0  0  0  0  0
    0.1596    1.1067   -5.7813 H   0  0  0  0  0  0
   -2.0054    0.2576   -4.9975 H   0  0  0  0  0  0
   -2.3158   -0.7269   -2.8531 H   0  0  0  0  0  0
   -0.5867   -0.5838    2.8530 H   0  0  0  0  0  0
   -1.8985   -1.2502    4.8401 H   0  0  0  0  0  0
   -3.1100   -4.8686    2.8331 H   0  0  0  0  0  0
   -1.8034   -4.2119    0.8500 H   0  0  0  0  0  0
   -3.7333   -4.2887    4.9159 H   0  0  0  0  0  0
   -2.7767   -1.0723    0.5861 H   0  0  0  0  0  0
   -3.0075   -0.9599   -1.0879 H   0  0  0  0  0  0
   -3.4415    1.1698    0.1172 H   0  0  0  0  0  0
   -2.0955    1.4372   -0.9901 H   0  0  0  0  0  0
   -1.7882    1.1981    0.7405 H   0  0  0  0  0  0
  1  2  1  0  0  0
  1  4  1  0  0  0
  1 32  1  0  0  0
  1 33  1  0  0  0
  2  3  1  0  0  0
  2  5  1  0  0  0
  2 34  1  0  0  0
  3  6  1  0  0  0
  3 35  1  0  0  0
  3 36  1  0  0  0
  4 37  1  0  0  0
  5 38  1  0  0  0
  6 17  1  0  0  0
  7  8  1  0  0  0
  7 14  1  0  0  0
  8  9  2  0  0  0
  8 18  1  0  0  0
  9 10  1  0  0  0
  9 15  1  0  0  0
 10 11  2  0  0  0
 10 23  1  0  0  0
 11 12  1  0  0  0
 11 30  1  0  0  0
 12 13  2  0  0  0
 12 22  1  0  0  0
 13 14  1  0  0  0
 13 19  1  0  0  0
 14 39  1  0  0  0
 14 40  1  0  0  0
 15 16  2  0  0  0
 15 41  1  0  0  0
 16 17  1  0  0  0
 16 42  1  0  0  0
 17 18  2  0  0  0
 18 43  1  0  0  0
 19 20  2  0  0  0
 19 44  1  0  0  0
 20 21  1  0  0  0
 20 45  1  0  0  0
 21 22  2  0  0  0
 21 46  1  0  0  0
 22 47  1  0  0  0
 23 24  2  0  0  0
 23 28  1  0  0  0
 24 25  1  0  0  0
 24 48  1  0  0  0
 25 26  2  0  0  0
 25 49  1  0  0  0
 26 27  1  0  0  0
 26 29  1  0  0  0
 27 28  2  0  0  0
 27 50  1  0  0  0
 28 51  1  0  0  0
 29 52  1  0  0  0
 30 31  1  0  0  0
 30 53  1  0  0  0
 30 54  1  0  0  0
 31 55  1  0  0  0
 31 56  1  0  0  0
 31 57  1  0  0  0
M  END
>  <Name>
tox-300

>  <substance>
3-[(11-Ethyl-12-(p -hydroxyphenyl)-6H -dibenzo[b,f ]thiocin-3-yl)oxy]-1,2-propanediol

>  <CASRN>
85864-54-6

>  <from_NCI>
0

>  <RBA>
5.000000

>  <method>
RUC

>  <chemical_class>
Triphenylethylene

>  <set>
1

$$$$
tox-301
  Cerius2 12190218263D 1   1.00000                          
 Structure written by MMmdl.
 59 62  0  0  0  0  0  0  0  0999 V2000
   -1.8104    6.1129    0.5225 C   0  0  0  0  0  0
   -0.5886    5.2062    0.3314 C   0  0  0  0  0  0
   -0.9253    3.7244    0.5497 C   0  0  0  0  0  0
   -2.4267    5.9042    1.7982 O   0  0  0  0  0  0
    0.4533    5.6067    1.2468 O   0  0  0  0  0  0
    0.2391    2.9560    0.1999 O   0  0  0  0  0  0
    0.1913   -1.2208    0.3519 C   0  0  0  0  0  0
   -0.9634   -0.5226    0.7686 C   0  0  0  0  0  0
   -2.1964   -1.2792    1.2119 C   0  0  0  0  0  0
   -3.1385   -1.6629    0.0644 C   0  0  0  0  0  0
   -2.5454   -2.0329   -1.2834 C   0  0  0  0  0  0
   -1.3990   -2.8325   -1.4744 C   0  0  0  0  0  0
   -0.5914   -3.4504   -0.3831 C   0  0  0  0  0  0
    0.2406   -2.7103    0.4016 C   0  0  0  0  0  0
   -0.9835    0.8836    0.7242 C   0  0  0  0  0  0
    0.1350    1.5947    0.2867 C   0  0  0  0  0  0
    1.2785    0.8971   -0.1087 C   0  0  0  0  0  0
    1.3105   -0.4992   -0.0766 C   0  0  0  0  0  0
   -0.9475   -3.0751   -2.7893 C   0  0  0  0  0  0
   -1.6270   -2.5741   -3.8990 C   0  0  0  0  0  0
   -2.7743   -1.8174   -3.7153 C   0  0  0  0  0  0
   -3.2281   -1.5526   -2.4235 C   0  0  0  0  0  0
    1.1518   -3.3916    1.3576 C   0  0  0  0  0  0
    0.8047   -3.5190    2.7090 C   0  0  0  0  0  0
    1.6699   -4.1566    3.6019 C   0  0  0  0  0  0
    2.8824   -4.6617    3.1453 C   0  0  0  0  0  0
    3.2476   -4.5396    1.8088 C   0  0  0  0  0  0
    2.3820   -3.9025    0.9155 C   0  0  0  0  0  0
    3.6996   -5.2773    4.0472 O   0  0  0  0  0  0
   -0.7184   -4.9690   -0.3268 C   0  0  0  0  0  0
   -1.9657   -5.4013    0.4355 C   0  0  0  0  0  0
   -2.5589    5.9144   -0.2512 H   0  0  0  0  0  0
   -1.5095    7.1644    0.4713 H   0  0  0  0  0  0
   -0.1821    5.3534   -0.6758 H   0  0  0  0  0  0
   -1.7664    3.4399   -0.0932 H   0  0  0  0  0  0
   -1.1621    3.5476    1.6055 H   0  0  0  0  0  0
   -3.1599    6.5547    1.8446 H   0  0  0  0  0  0
    1.1549    4.9267    1.1497 H   0  0  0  0  0  0
   -2.7519   -0.6768    1.9435 H   0  0  0  0  0  0
   -1.9145   -2.1744    1.7768 H   0  0  0  0  0  0
   -3.8048   -0.8011   -0.0833 H   0  0  0  0  0  0
   -3.7879   -2.4845    0.3923 H   0  0  0  0  0  0
   -1.8905    1.3948    1.0365 H   0  0  0  0  0  0
    2.1577    1.4411   -0.4498 H   0  0  0  0  0  0
    2.2139   -1.0153   -0.3956 H   0  0  0  0  0  0
   -0.0473   -3.6664   -2.9587 H   0  0  0  0  0  0
   -1.2599   -2.7795   -4.9024 H   0  0  0  0  0  0
   -3.3164   -1.4270   -4.5745 H   0  0  0  0  0  0
   -4.1304   -0.9507   -2.3089 H   0  0  0  0  0  0
   -0.1403   -3.1263    3.0778 H   0  0  0  0  0  0
    1.3920   -4.2540    4.6488 H   0  0  0  0  0  0
    4.1947   -4.9305    1.4448 H   0  0  0  0  0  0
    2.6714   -3.8090   -0.1301 H   0  0  0  0  0  0
    4.5079   -5.5761    3.5782 H   0  0  0  0  0  0
    0.1515   -5.4350    0.1457 H   0  0  0  0  0  0
   -0.7501   -5.3967   -1.3361 H   0  0  0  0  0  0
   -2.0127   -6.4937    0.4897 H   0  0  0  0  0  0
   -2.8783   -5.0525   -0.0585 H   0  0  0  0  0  0
   -1.9601   -5.0127    1.4592 H   0  0  0  0  0  0
  1  2  1  0  0  0
  1  4  1  0  0  0
  1 32  1  0  0  0
  1 33  1  0  0  0
  2  3  1  0  0  0
  2  5  1  0  0  0
  2 34  1  0  0  0
  3  6  1  0  0  0
  3 35  1  0  0  0
  3 36  1  0  0  0
  4 37  1  0  0  0
  5 38  1  0  0  0
  6 16  1  0  0  0
  7  8  2  0  0  0
  7 14  1  0  0  0
  7 18  1  0  0  0
  8  9  1  0  0  0
  8 15  1  0  0  0
  9 10  1  0  0  0
  9 39  1  0  0  0
  9 40  1  0  0  0
 10 11  1  0  0  0
 10 41  1  0  0  0
 10 42  1  0  0  0
 11 12  2  0  0  0
 11 22  1  0  0  0
 12 13  1  0  0  0
 12 19  1  0  0  0
 13 14  2  0  0  0
 13 30  1  0  0  0
 14 23  1  0  0  0
 15 16  2  0  0  0
 15 43  1  0  0  0
 16 17  1  0  0  0
 17 18  2  0  0  0
 17 44  1  0  0  0
 18 45  1  0  0  0
 19 20  2  0  0  0
 19 46  1  0  0  0
 20 21  1  0  0  0
 20 47  1  0  0  0
 21 22  2  0  0  0
 21 48  1  0  0  0
 22 49  1  0  0  0
 23 24  2  0  0  0
 23 28  1  0  0  0
 24 25  1  0  0  0
 24 50  1  0  0  0
 25 26  2  0  0  0
 25 51  1  0  0  0
 26 27  1  0  0  0
 26 29  1  0  0  0
 27 28  2  0  0  0
 27 52  1  0  0  0
 28 53  1  0  0  0
 29 54  1  0  0  0
 30 31  1  0  0  0
 30 55  1  0  0  0
 30 56  1  0  0  0
 31 57  1  0  0  0
 31 58  1  0  0  0
 31 59  1  0  0  0
M  END
>  <Name>
tox-301

>  <substance>
3-[(6-Ethyl-5-(p -hydroxyphenyl)-11,12-dihydrodibenzo[a,e ]cycloocten2-yl)oxy]-1,2-propanediol

>  <CASRN>
85850-95-9

>  <from_NCI>
0

>  <RBA>
9.100000

>  <method>
RUC

>  <chemical_class>
Triphenylethylene

>  <set>
2

$$$$
tox-302
  Cerius2 12190218263D 1   1.00000                          
 Structure written by MMmdl.
 34 36  0  0  0  0  0  0  0  0999 V2000
    1.1292   -1.8503    0.8922 C   0  0  0  0  0  0
    0.3031   -0.6697    0.4129 C   0  0  0  0  0  0
    1.0312    0.4642    0.2968 C   0  0  0  0  0  0
    2.4077    0.1385    0.6902 C   0  0  0  0  0  0
    3.5385    0.9370    0.7671 C   0  0  0  0  0  0
    4.7430    0.3573    1.1802 C   0  0  0  0  0  0
    4.8062   -1.0043    1.5144 C   0  0  0  0  0  0
    3.6660   -1.8054    1.4437 C   0  0  0  0  0  0
    2.4796   -1.2180    1.0325 C   0  0  0  0  0  0
   -1.1324   -0.8409    0.1656 C   0  0  0  0  0  0
   -1.9609   -1.3975    1.1499 C   0  0  0  0  0  0
   -3.3271   -1.5776    0.9133 C   0  0  0  0  0  0
   -3.8685   -1.2076   -0.3115 C   0  0  0  0  0  0
   -3.0653   -0.6617   -1.3055 C   0  0  0  0  0  0
   -1.6990   -0.4822   -1.0657 C   0  0  0  0  0  0
   -5.2042   -1.3987   -0.5064 O   0  0  0  0  0  0
    0.6040    1.8508   -0.0699 C   0  0  0  0  0  0
    1.0398    2.2551   -1.4723 C   0  0  0  0  0  0
    1.1476   -2.6501    0.1453 H   0  0  0  0  0  0
    0.7835   -2.2286    1.8589 H   0  0  0  0  0  0
    3.5056    1.9932    0.5156 H   0  0  0  0  0  0
    5.6419    0.9692    1.2445 H   0  0  0  0  0  0
    5.7532   -1.4370    1.8346 H   0  0  0  0  0  0
    3.7109   -2.8587    1.7078 H   0  0  0  0  0  0
   -1.5574   -1.6859    2.1192 H   0  0  0  0  0  0
   -3.9589   -2.0050    1.6885 H   0  0  0  0  0  0
   -3.4780   -0.3748   -2.2698 H   0  0  0  0  0  0
   -1.0796   -0.0702   -1.8600 H   0  0  0  0  0  0
   -5.4320   -1.0914   -1.4100 H   0  0  0  0  0  0
    1.0059    2.5665    0.6576 H   0  0  0  0  0  0
   -0.4857    1.9461   -0.0007 H   0  0  0  0  0  0
    0.6738    3.2610   -1.7026 H   0  0  0  0  0  0
    0.6415    1.5713   -2.2283 H   0  0  0  0  0  0
    2.1297    2.2674   -1.5701 H   0  0  0  0  0  0
  1  2  1  0  0  0
  1  9  1  0  0  0
  1 19  1  0  0  0
  1 20  1  0  0  0
  2  3  2  0  0  0
  2 10  1  0  0  0
  3  4  1  0  0  0
  3 17  1  0  0  0
  4  5  2  0  0  0
  4  9  1  0  0  0
  5  6  1  0  0  0
  5 21  1  0  0  0
  6  7  2  0  0  0
  6 22  1  0  0  0
  7  8  1  0  0  0
  7 23  1  0  0  0
  8  9  2  0  0  0
  8 24  1  0  0  0
 10 11  2  0  0  0
 10 15  1  0  0  0
 11 12  1  0  0  0
 11 25  1  0  0  0
 12 13  2  0  0  0
 12 26  1  0  0  0
 13 14  1  0  0  0
 13 16  1  0  0  0
 14 15  2  0  0  0
 14 27  1  0  0  0
 15 28  1  0  0  0
 16 29  1  0  0  0
 17 18  1  0  0  0
 17 30  1  0  0  0
 17 31  1  0  0  0
 18 32  1  0  0  0
 18 33  1  0  0  0
 18 34  1  0  0  0
M  END
>  <Name>
tox-302

>  <substance>
3-Ethyl-4'-hydroxy-2-phenylindene

>  <CASRN>


>  <from_NCI>
0

>  <RBA>
2.300000

>  <method>
RUC

>  <chemical_class>
Indene

>  <set>
1

$$$$
tox-303
  Cerius2 12190218263D 1   1.00000                          
 Structure written by MMmdl.
 34 36  0  0  0  0  0  0  0  0999 V2000
    0.7551   -1.8062    0.4572 C   0  0  0  0  0  0
   -0.0734   -0.6720   -0.1197 C   0  0  0  0  0  0
    0.6255    0.4804   -0.2328 C   0  0  0  0  0  0
    1.9824    0.2157    0.2609 C   0  0  0  0  0  0
    3.0803    1.0548    0.3793 C   0  0  0  0  0  0
    4.2726    0.5314    0.8921 C   0  0  0  0  0  0
    4.3467   -0.8117    1.2794 C   0  0  0  0  0  0
    3.2477   -1.6594    1.1704 C   0  0  0  0  0  0
    2.0737   -1.1250    0.6600 C   0  0  0  0  0  0
   -1.4840   -0.9001   -0.4519 C   0  0  0  0  0  0
   -2.3566   -1.4510    0.4963 C   0  0  0  0  0  0
   -3.6978   -1.6854    0.1802 C   0  0  0  0  0  0
   -4.1802   -1.3775   -1.0897 C   0  0  0  0  0  0
   -3.3218   -0.8376   -2.0445 C   0  0  0  0  0  0
   -1.9810   -0.6029   -1.7278 C   0  0  0  0  0  0
    5.5364   -1.2639    1.7729 O   0  0  0  0  0  0
    0.1806    1.8376   -0.6798 C   0  0  0  0  0  0
    0.6943    2.2041   -2.0661 C   0  0  0  0  0  0
    0.8472   -2.6318   -0.2554 H   0  0  0  0  0  0
    0.3586   -2.1601    1.4135 H   0  0  0  0  0  0
    3.0315    2.0992    0.0852 H   0  0  0  0  0  0
    5.1444    1.1753    0.9899 H   0  0  0  0  0  0
    3.2946   -2.7007    1.4739 H   0  0  0  0  0  0
   -2.0076   -1.6928    1.4990 H   0  0  0  0  0  0
   -4.3660   -2.1081    0.9286 H   0  0  0  0  0  0
   -5.2246   -1.5608   -1.3361 H   0  0  0  0  0  0
   -3.6937   -0.6018   -3.0400 H   0  0  0  0  0  0
   -1.3259   -0.1971   -2.4961 H   0  0  0  0  0  0
    5.4361   -2.2132    2.0000 H   0  0  0  0  0  0
    0.5124    2.5926    0.0435 H   0  0  0  0  0  0
   -0.9136    1.8995   -0.6840 H   0  0  0  0  0  0
    0.3143    3.1886   -2.3580 H   0  0  0  0  0  0
    0.3665    1.4806   -2.8190 H   0  0  0  0  0  0
    1.7874    2.2479   -2.0946 H   0  0  0  0  0  0
  1  2  1  0  0  0
  1  9  1  0  0  0
  1 19  1  0  0  0
  1 20  1  0  0  0
  2  3  2  0  0  0
  2 10  1  0  0  0
  3  4  1  0  0  0
  3 17  1  0  0  0
  4  5  2  0  0  0
  4  9  1  0  0  0
  5  6  1  0  0  0
  5 21  1  0  0  0
  6  7  2  0  0  0
  6 22  1  0  0  0
  7  8  1  0  0  0
  7 16  1  0  0  0
  8  9  2  0  0  0
  8 23  1  0  0  0
 10 11  2  0  0  0
 10 15  1  0  0  0
 11 12  1  0  0  0
 11 24  1  0  0  0
 12 13  2  0  0  0
 12 25  1  0  0  0
 13 14  1  0  0  0
 13 26  1  0  0  0
 14 15  2  0  0  0
 14 27  1  0  0  0
 15 28  1  0  0  0
 16 29  1  0  0  0
 17 18  1  0  0  0
 17 30  1  0  0  0
 17 31  1  0  0  0
 18 32  1  0  0  0
 18 33  1  0  0  0
 18 34  1  0  0  0
M  END
>  <Name>
tox-303

>  <substance>
3-Ethyl-6-hydroxy 2-phenylindene

>  <CASRN>


>  <from_NCI>
0

>  <RBA>
0.600000

>  <method>
RUC

>  <chemical_class>
Indene

>  <set>
0

$$$$
tox-304
  Cerius2 12190218263D 1   1.00000                          
 Structure written by MMmdl.
 33 35  0  0  0  0  0  0  0  0999 V2000
    1.2975   -1.5043    0.8105 C   0  0  0  0  0  0
    0.4325   -0.4531    0.1962 C   0  0  0  0  0  0
    1.1687    0.6730    0.0702 C   0  0  0  0  0  0
    2.5138    0.4243    0.5912 C   0  0  0  0  0  0
    3.6190    1.2533    0.7029 C   0  0  0  0  0  0
    4.7965    0.7321    1.2559 C   0  0  0  0  0  0
    4.8606   -0.6020    1.6936 C   0  0  0  0  0  0
    3.7467   -1.4339    1.5864 C   0  0  0  0  0  0
    2.6000   -0.8891    1.0350 C   0  0  0  0  0  0
    0.9924   -2.6533    1.0757 O   0  0  0  0  0  0
   -0.9720   -0.6537   -0.1561 C   0  0  0  0  0  0
   -1.9058   -0.9845    0.8351 C   0  0  0  0  0  0
   -3.2505   -1.1759    0.5063 C   0  0  0  0  0  0
   -3.6625   -1.0400   -0.8142 C   0  0  0  0  0  0
   -2.7512   -0.7171   -1.8134 C   0  0  0  0  0  0
   -1.4062   -0.5256   -1.4830 C   0  0  0  0  0  0
   -4.9821   -1.2345   -1.0968 O   0  0  0  0  0  0
    0.7451    2.0181   -0.4347 C   0  0  0  0  0  0
    1.2673    2.3133   -1.8345 C   0  0  0  0  0  0
    3.5892    2.2883    0.3739 H   0  0  0  0  0  0
    5.6750    1.3701    1.3493 H   0  0  0  0  0  0
    5.7861   -0.9854    2.1211 H   0  0  0  0  0  0
    3.7773   -2.4649    1.9234 H   0  0  0  0  0  0
   -1.5964   -1.0928    1.8738 H   0  0  0  0  0  0
   -3.9674   -1.4302    1.2838 H   0  0  0  0  0  0
   -3.0645   -0.6126   -2.8495 H   0  0  0  0  0  0
   -0.7004   -0.2825   -2.2755 H   0  0  0  0  0  0
   -5.1146   -1.1051   -2.0604 H   0  0  0  0  0  0
    1.0856    2.7991    0.2560 H   0  0  0  0  0  0
   -0.3484    2.0955   -0.4466 H   0  0  0  0  0  0
    0.9107    3.2931   -2.1684 H   0  0  0  0  0  0
    0.9207    1.5661   -2.5554 H   0  0  0  0  0  0
    2.3612    2.3292   -1.8637 H   0  0  0  0  0  0
  1  2  1  0  0  0
  1  9  1  0  0  0
  1 10  2  0  0  0
  2  3  2  0  0  0
  2 11  1  0  0  0
  3  4  1  0  0  0
  3 18  1  0  0  0
  4  5  2  0  0  0
  4  9  1  0  0  0
  5  6  1  0  0  0
  5 20  1  0  0  0
  6  7  2  0  0  0
  6 21  1  0  0  0
  7  8  1  0  0  0
  7 22  1  0  0  0
  8  9  2  0  0  0
  8 23  1  0  0  0
 11 12  2  0  0  0
 11 16  1  0  0  0
 12 13  1  0  0  0
 12 24  1  0  0  0
 13 14  2  0  0  0
 13 25  1  0  0  0
 14 15  1  0  0  0
 14 17  1  0  0  0
 15 16  2  0  0  0
 15 26  1  0  0  0
 16 27  1  0  0  0
 17 28  1  0  0  0
 18 19  1  0  0  0
 18 29  1  0  0  0
 18 30  1  0  0  0
 19 31  1  0  0  0
 19 32  1  0  0  0
 19 33  1  0  0  0
M  END
>  <Name>
tox-304

>  <substance>
3-Ethyl-4'-hydroxy 2-phenylindenone-1

>  <CASRN>


>  <from_NCI>
0

>  <RBA>
1.600000

>  <method>
RUC

>  <chemical_class>
Indene

>  <set>
0

$$$$
tox-305
  Cerius2 12190218263D 1   1.00000                          
 Structure written by MMmdl.
 33 35  0  0  0  0  0  0  0  0999 V2000
    0.8923   -1.4343    0.3958 C   0  0  0  0  0  0
    0.0422   -0.4240   -0.3018 C   0  0  0  0  0  0
    0.7656    0.7091   -0.4372 C   0  0  0  0  0  0
    2.0869    0.5058    0.1583 C   0  0  0  0  0  0
    3.1717    1.3585    0.2901 C   0  0  0  0  0  0
    4.3279    0.8796    0.9208 C   0  0  0  0  0  0
    4.3814   -0.4332    1.4103 C   0  0  0  0  0  0
    3.2972   -1.2945    1.2880 C   0  0  0  0  0  0
    2.1724   -0.7882    0.6590 C   0  0  0  0  0  0
    0.5939   -2.5773    0.6924 O   0  0  0  0  0  0
   -1.3398   -0.6636   -0.7140 C   0  0  0  0  0  0
   -2.3160   -0.9720    0.2423 C   0  0  0  0  0  0
   -3.6393   -1.1999   -0.1434 C   0  0  0  0  0  0
   -3.9973   -1.1246   -1.4881 C   0  0  0  0  0  0
   -3.0332   -0.8237   -2.4483 C   0  0  0  0  0  0
   -1.7098   -0.5955   -2.0636 C   0  0  0  0  0  0
    5.5370   -0.8361    2.0146 O   0  0  0  0  0  0
    0.3458    2.0253   -1.0166 C   0  0  0  0  0  0
    0.9315    2.2735   -2.4003 C   0  0  0  0  0  0
    3.1424    2.3790   -0.0811 H   0  0  0  0  0  0
    5.1896    1.5358    1.0311 H   0  0  0  0  0  0
    3.3146   -2.3116    1.6625 H   0  0  0  0  0  0
   -2.0564   -1.0339    1.2984 H   0  0  0  0  0  0
   -4.3910   -1.4364    0.6076 H   0  0  0  0  0  0
   -5.0285   -1.3026   -1.7883 H   0  0  0  0  0  0
   -3.3106   -0.7683   -3.4995 H   0  0  0  0  0  0
   -0.9705   -0.3710   -2.8306 H   0  0  0  0  0  0
    5.4296   -1.7675    2.3046 H   0  0  0  0  0  0
    0.6393    2.8393   -0.3427 H   0  0  0  0  0  0
   -0.7469    2.0823   -1.0848 H   0  0  0  0  0  0
    0.5758    3.2324   -2.7912 H   0  0  0  0  0  0
    0.6333    1.4917   -3.1060 H   0  0  0  0  0  0
    2.0251    2.3084   -2.3769 H   0  0  0  0  0  0
  1  2  1  0  0  0
  1  9  1  0  0  0
  1 10  2  0  0  0
  2  3  2  0  0  0
  2 11  1  0  0  0
  3  4  1  0  0  0
  3 18  1  0  0  0
  4  5  2  0  0  0
  4  9  1  0  0  0
  5  6  1  0  0  0
  5 20  1  0  0  0
  6  7  2  0  0  0
  6 21  1  0  0  0
  7  8  1  0  0  0
  7 17  1  0  0  0
  8  9  2  0  0  0
  8 22  1  0  0  0
 11 12  2  0  0  0
 11 16  1  0  0  0
 12 13  1  0  0  0
 12 23  1  0  0  0
 13 14  2  0  0  0
 13 24  1  0  0  0
 14 15  1  0  0  0
 14 25  1  0  0  0
 15 16  2  0  0  0
 15 26  1  0  0  0
 16 27  1  0  0  0
 17 28  1  0  0  0
 18 19  1  0  0  0
 18 29  1  0  0  0
 18 30  1  0  0  0
 19 31  1  0  0  0
 19 32  1  0  0  0
 19 33  1  0  0  0
M  END
>  <Name>
tox-305

>  <substance>
3-Ethyl-6-hydroxy 2-phenylindenone-1

>  <CASRN>


>  <from_NCI>
0

>  <RBA>
1.200000

>  <method>
RUC

>  <chemical_class>
Indene

>  <set>
2

$$$$
tox-306
  Cerius2 12190218263D 1   1.00000                          
 Structure written by MMmdl.
 42 43  0  0  0  0  0  0  0  0999 V2000
    1.1459    0.8837   -0.1138 C   0  0  0  0  0  0
   -0.3247    0.8278   -0.0315 C   0  0  0  0  0  0
    1.9069   -0.2227   -0.2928 C   0  0  0  0  0  0
    1.7098    2.2783    0.0460 C   0  0  0  0  0  0
   -1.1029    0.9837   -1.1839 C   0  0  0  0  0  0
   -0.9584    0.6186    1.1965 C   0  0  0  0  0  0
    3.4348   -0.1233   -0.3704 C   0  0  0  0  0  0
    1.3393   -1.6284   -0.4271 C   0  0  0  0  0  0
    3.2134    2.3905   -0.2033 C   0  0  0  0  0  0
   -2.5002    0.9299   -1.1115 C   0  0  0  0  0  0
   -2.3534    0.5648    1.2659 C   0  0  0  0  0  0
    3.9538    1.1598    0.3242 C   0  0  0  0  0  0
    3.8769   -0.2273   -1.8411 C   0  0  0  0  0  0
    1.4400   -2.4196    0.8705 C   0  0  0  0  0  0
   -3.1312    0.7199    0.1151 C   0  0  0  0  0  0
    5.4801    1.2671    0.2936 C   0  0  0  0  0  0
   -4.4814    0.6465    0.3215 O   0  0  0  0  0  0
    6.1255    0.3094    0.8093 O   0  0  0  0  0  0
    5.9916    2.3074   -0.2049 O   0  0  0  0  0  0
   -5.3149    0.8015   -0.8262 C   0  0  0  0  0  0
    1.5045    2.6150    1.0711 H   0  0  0  0  0  0
    1.1958    2.9783   -0.6246 H   0  0  0  0  0  0
   -0.6266    1.1461   -2.1497 H   0  0  0  0  0  0
   -0.3731    0.4946    2.1058 H   0  0  0  0  0  0
    3.8670   -0.9784    0.1648 H   0  0  0  0  0  0
    1.8650   -2.1697   -1.2211 H   0  0  0  0  0  0
    0.2913   -1.6099   -0.7442 H   0  0  0  0  0  0
    3.5866    3.3028    0.2784 H   0  0  0  0  0  0
    3.4011    2.5195   -1.2763 H   0  0  0  0  0  0
   -3.0603    1.0555   -2.0341 H   0  0  0  0  0  0
   -2.8324    0.4001    2.2296 H   0  0  0  0  0  0
    3.7127    1.0776    1.3960 H   0  0  0  0  0  0
    4.9634   -0.1364   -1.9374 H   0  0  0  0  0  0
    3.4167    0.5469   -2.4639 H   0  0  0  0  0  0
    3.6031   -1.1967   -2.2702 H   0  0  0  0  0  0
    0.9952   -3.4115    0.7399 H   0  0  0  0  0  0
    0.9091   -1.9177    1.6857 H   0  0  0  0  0  0
    2.4809   -2.5601    1.1781 H   0  0  0  0  0  0
   -5.1845    1.7911   -1.2762 H   0  0  0  0  0  0
   -6.3547    0.7196   -0.4953 H   0  0  0  0  0  0
   -5.1325    0.0051   -1.5552 H   0  0  0  0  0  0
    6.9592    0.4615    0.7433 H   0  0  0  0  0  0
  1  2  1  0  0  0
  1  3  2  0  0  0
  1  4  1  0  0  0
  2  5  2  0  0  0
  2  6  1  0  0  0
  3  7  1  0  0  0
  3  8  1  0  0  0
  4  9  1  0  0  0
  4 21  1  0  0  0
  4 22  1  0  0  0
  5 10  1  0  0  0
  5 23  1  0  0  0
  6 11  2  0  0  0
  6 24  1  0  0  0
  7 12  1  0  0  0
  7 13  1  0  0  0
  7 25  1  0  0  0
  8 14  1  0  0  0
  8 26  1  0  0  0
  8 27  1  0  0  0
  9 12  1  0  0  0
  9 28  1  0  0  0
  9 29  1  0  0  0
 10 15  2  0  0  0
 10 30  1  0  0  0
 11 15  1  0  0  0
 11 31  1  0  0  0
 12 16  1  0  0  0
 12 32  1  0  0  0
 13 33  1  0  0  0
 13 34  1  0  0  0
 13 35  1  0  0  0
 14 36  1  0  0  0
 14 37  1  0  0  0
 14 38  1  0  0  0
 15 17  1  0  0  0
 16 18  1  0  0  0
 16 19  2  0  0  0
 17 20  1  0  0  0
 18 42  1  0  0  0
 20 39  1  0  0  0
 20 40  1  0  0  0
 20 41  1  0  0  0
M  END
>  <Name>
tox-306

>  <substance>
3-Ethyl-4-(p -methoxyphenyl)-2-methyl-3-cyclohexene-1-carboxylic acid

>  <CASRN>
1755-52-8

>  <from_NCI>
1

>  <RBA>
0.800000

>  <method>
RBC

>  <chemical_class>
Carboxylic acid

>  <set>
2

$$$$
tox-307
  Cerius2 12190218263D 1   1.00000                          
 Structure written by MMmdl.
 22 22  0  0  0  0  0  0  0  0999 V2000
   -0.4935   -0.4849    0.7163 C   0  0  0  0  0  0
    0.9559   -0.6442    0.4126 C   0  0  0  0  0  0
   -1.2804   -1.6284    0.8504 C   0  0  0  0  0  0
   -1.1002    0.7609    0.8727 C   0  0  0  0  0  0
    1.5622    0.5662    0.3210 O   0  0  0  0  0  0
    1.5084   -1.7262    0.2687 O   0  0  0  0  0  0
   -2.6521   -1.5168    1.1368 C   0  0  0  0  0  0
   -2.4744    0.8473    1.1589 C   0  0  0  0  0  0
    2.9674    0.5183    0.0296 C   0  0  0  0  0  0
   -3.3058   -0.2807    1.3027 C   0  0  0  0  0  0
    3.4848    1.9417   -0.0342 C   0  0  0  0  0  0
   -4.5470   -0.1900    1.5615 O   0  0  0  0  0  0
   -0.8453   -2.6197    0.7358 H   0  0  0  0  0  0
   -0.5311    1.6832    0.7779 H   0  0  0  0  0  0
   -3.2216   -2.4462    1.2314 H   0  0  0  0  0  0
   -2.9002    1.8489    1.2719 H   0  0  0  0  0  0
    3.1262    0.0208   -0.9335 H   0  0  0  0  0  0
    3.4885   -0.0320    0.8209 H   0  0  0  0  0  0
    4.5556    1.9582   -0.2554 H   0  0  0  0  0  0
    3.3117    2.4576    0.9161 H   0  0  0  0  0  0
    2.9551    2.5101   -0.8059 H   0  0  0  0  0  0
   -4.7637    0.6293    1.6267 H   0  0  0  0  0  0
  1  2  1  0  0  0
  1  3  2  0  0  0
  1  4  1  0  0  0
  2  5  1  0  0  0
  2  6  2  0  0  0
  3  7  1  0  0  0
  3 13  1  0  0  0
  4  8  2  0  0  0
  4 14  1  0  0  0
  5  9  1  0  0  0
  7 10  2  0  0  0
  7 15  1  0  0  0
  8 10  1  0  0  0
  8 16  1  0  0  0
  9 11  1  0  0  0
  9 17  1  0  0  0
  9 18  1  0  0  0
 10 12  1  0  0  0
 11 19  1  0  0  0
 11 20  1  0  0  0
 11 21  1  0  0  0
 12 22  1  0  0  0
M  END
>  <Name>
tox-307

>  <substance>
Ethyl paraben

>  <CASRN>
120-47-8

>  <from_NCI>
1

>  <RBA>
0.000600

>  <method>
RUC

>  <chemical_class>
Paraben

>  <set>
1

$$$$
tox-308
  Cerius2 12190218263D 1   1.00000                          
 Structure written by MMmdl.
 19 19  0  0  0  0  0  0  0  0999 V2000
   -0.1507    0.5485    0.6537 C   0  0  0  0  0  0
    1.0465    1.3134    0.5215 C   0  0  0  0  0  0
   -0.1137   -0.8628    0.7795 C   0  0  0  0  0  0
   -1.5399    1.1853    0.6561 C   0  0  0  0  0  0
    2.2382    0.5513    0.5319 C   0  0  0  0  0  0
    1.0905    2.5825    0.4020 O   0  0  0  0  0  0
    1.0902   -1.5549    0.7828 C   0  0  0  0  0  0
   -2.2332    1.0698   -0.6960 C   0  0  0  0  0  0
    2.2715   -0.8451    0.6587 C   0  0  0  0  0  0
   -1.0427   -1.4253    0.8762 H   0  0  0  0  0  0
   -1.4843    2.2387    0.9523 H   0  0  0  0  0  0
   -2.1524    0.6986    1.4259 H   0  0  0  0  0  0
    3.2014    1.0628    0.4362 H   0  0  0  0  0  0
    1.1035   -2.6381    0.8809 H   0  0  0  0  0  0
   -3.2205    1.5408   -0.6557 H   0  0  0  0  0  0
   -2.3695    0.0233   -0.9879 H   0  0  0  0  0  0
   -1.6511    1.5645   -1.4807 H   0  0  0  0  0  0
    3.2271   -1.3664    0.6585 H   0  0  0  0  0  0
    1.9001    2.8331    0.3372 H   0  0  0  0  0  0
  1  2  2  0  0  0
  1  3  1  0  0  0
  1  4  1  0  0  0
  2  5  1  0  0  0
  2  6  1  0  0  0
  3  7  2  0  0  0
  3 10  1  0  0  0
  4  8  1  0  0  0
  4 11  1  0  0  0
  4 12  1  0  0  0
  5  9  2  0  0  0
  5 13  1  0  0  0
  6 19  1  0  0  0
  7  9  1  0  0  0
  7 14  1  0  0  0
  8 15  1  0  0  0
  8 16  1  0  0  0
  8 17  1  0  0  0
  9 18  1  0  0  0
M  END
>  <Name>
tox-308

>  <substance>
2-Ethylphenol

>  <CASRN>
90-00-6

>  <from_NCI>
1

>  <RBA>
0.000000

>  <method>
RUC

>  <chemical_class>
Alkylphenol

>  <set>
1

$$$$
tox-309
  Cerius2 12190218263D 1   1.00000                          
 Structure written by MMmdl.
 19 19  0  0  0  0  0  0  0  0999 V2000
    0.3136   -0.5689   -0.6624 C   0  0  0  0  0  0
   -0.8785   -1.2965   -0.4582 C   0  0  0  0  0  0
    0.2424    0.8128   -0.8351 C   0  0  0  0  0  0
    1.6488   -1.2733   -0.6694 C   0  0  0  0  0  0
   -2.1596   -0.7051   -0.4292 C   0  0  0  0  0  0
   -0.9959    1.4414   -0.8139 C   0  0  0  0  0  0
    2.2853   -1.3036    0.7121 C   0  0  0  0  0  0
   -2.1645    0.6906   -0.6160 C   0  0  0  0  0  0
   -3.2235   -1.3779   -0.2482 O   0  0  0  0  0  0
   -0.7954   -2.3786   -0.3153 H   0  0  0  0  0  0
    1.1444    1.4031   -0.9862 H   0  0  0  0  0  0
    2.3224   -0.7743   -1.3768 H   0  0  0  0  0  0
    1.5242   -2.2973   -1.0418 H   0  0  0  0  0  0
   -1.0628    2.5195   -0.9499 H   0  0  0  0  0  0
    3.2490   -1.8211    0.6737 H   0  0  0  0  0  0
    1.6465   -1.8273    1.4313 H   0  0  0  0  0  0
    2.4586   -0.2911    1.0921 H   0  0  0  0  0  0
   -3.1143    1.2333   -0.6078 H   0  0  0  0  0  0
   -3.8944   -0.8562   -0.2616 H   0  0  0  0  0  0
  1  2  2  0  0  0
  1  3  1  0  0  0
  1  4  1  0  0  0
  2  5  1  0  0  0
  2 10  1  0  0  0
  3  6  2  0  0  0
  3 11  1  0  0  0
  4  7  1  0  0  0
  4 12  1  0  0  0
  4 13  1  0  0  0
  5  8  2  0  0  0
  5  9  1  0  0  0
  6  8  1  0  0  0
  6 14  1  0  0  0
  7 15  1  0  0  0
  7 16  1  0  0  0
  7 17  1  0  0  0
  8 18  1  0  0  0
  9 19  1  0  0  0
M  END
>  <Name>
tox-309

>  <substance>
3-Ethylphenol

>  <CASRN>
620-17-7

>  <from_NCI>
1

>  <RBA>
0.000100

>  <method>
RUC

>  <chemical_class>
Alkylphenol

>  <set>
1

$$$$
tox-310
  Cerius2 12190218263D 1   1.00000                          
 Structure written by MMmdl.
 19 19  0  0  0  0  0  0  0  0999 V2000
    0.5336    0.1706    0.6755 C   0  0  0  0  0  0
   -0.0908   -1.0570    0.4604 C   0  0  0  0  0  0
   -0.2729    1.2909    0.8692 C   0  0  0  0  0  0
    2.0360    0.2876    0.6728 C   0  0  0  0  0  0
   -1.4935   -1.1531    0.4531 C   0  0  0  0  0  0
   -1.6739    1.1728    0.8582 C   0  0  0  0  0  0
    2.5836    0.5694   -0.7182 C   0  0  0  0  0  0
   -2.3441   -0.0485    0.6522 C   0  0  0  0  0  0
   -3.6120   -0.1456    0.6449 O   0  0  0  0  0  0
    0.5011   -1.9566    0.2954 H   0  0  0  0  0  0
    0.1732    2.2715    1.0317 H   0  0  0  0  0  0
    2.4776   -0.6371    1.0640 H   0  0  0  0  0  0
    2.3442    1.0848    1.3603 H   0  0  0  0  0  0
   -1.9263   -2.1432    0.2819 H   0  0  0  0  0  0
   -2.2543    2.0863    1.0184 H   0  0  0  0  0  0
    3.6749    0.6488   -0.6865 H   0  0  0  0  0  0
    2.1862    1.5083   -1.1186 H   0  0  0  0  0  0
    2.3215   -0.2315   -1.4178 H   0  0  0  0  0  0
   -3.9556    0.6199    0.7810 H   0  0  0  0  0  0
  1  2  2  0  0  0
  1  3  1  0  0  0
  1  4  1  0  0  0
  2  5  1  0  0  0
  2 10  1  0  0  0
  3  6  2  0  0  0
  3 11  1  0  0  0
  4  7  1  0  0  0
  4 12  1  0  0  0
  4 13  1  0  0  0
  5  8  2  0  0  0
  5 14  1  0  0  0
  6  8  1  0  0  0
  6 15  1  0  0  0
  7 16  1  0  0  0
  7 17  1  0  0  0
  7 18  1  0  0  0
  8  9  1  0  0  0
  9 19  1  0  0  0
M  END
>  <Name>
tox-310

>  <substance>
4-Ethylphenol

>  <CASRN>
123-07-9

>  <from_NCI>
1

>  <RBA>
0.000070

>  <method>
RUC

>  <chemical_class>
Phenol; Alkylphenol

>  <set>
1

$$$$
tox-311
  Cerius2 12190218263D 1   1.00000                          
 Structure written by MMmdl.
 53 56  0  0  0  0  0  0  0  0999 V2000
   -0.5062    6.3880    0.0686 C   0  0  0  0  0  0
    0.4293    5.1779    0.0002 C   0  0  0  0  0  0
   -0.3473    3.8527    0.0389 C   0  0  0  0  0  0
   -1.3570    6.4538   -1.0745 O   0  0  0  0  0  0
    1.3524    5.2350    1.1033 O   0  0  0  0  0  0
    0.6043    2.7830   -0.1002 O   0  0  0  0  0  0
    2.0186   -2.0626   -0.4213 S   0  0  0  0  0  0
    0.7044   -0.8480   -0.2881 C   0  0  0  0  0  0
   -0.6464   -1.2208   -0.1458 C   0  0  0  0  0  0
   -1.1218   -2.6390   -0.2642 C   0  0  0  0  0  0
   -0.5803   -3.6609    0.4600 C   0  0  0  0  0  0
    0.4952   -3.4523    1.4812 C   0  0  0  0  0  0
    1.7259   -2.8367    1.1695 C   0  0  0  0  0  0
   -1.5990   -0.2015    0.0223 C   0  0  0  0  0  0
   -1.2265    1.1484    0.0477 C   0  0  0  0  0  0
    0.1092    1.5081   -0.1034 C   0  0  0  0  0  0
    1.0690    0.5073   -0.2689 C   0  0  0  0  0  0
    2.7391   -2.7486    2.1356 C   0  0  0  0  0  0
    2.5353   -3.2503    3.4200 C   0  0  0  0  0  0
    1.3161   -3.8328    3.7493 C   0  0  0  0  0  0
    0.3056   -3.9320    2.7894 C   0  0  0  0  0  0
   -2.1822   -2.9606   -1.2605 C   0  0  0  0  0  0
   -1.8449   -3.1117   -2.6122 C   0  0  0  0  0  0
   -2.8322   -3.4046   -3.5551 C   0  0  0  0  0  0
   -4.1608   -3.5441   -3.1550 C   0  0  0  0  0  0
   -4.5059   -3.3906   -1.8127 C   0  0  0  0  0  0
   -3.5211   -3.0983   -0.8671 C   0  0  0  0  0  0
   -0.9783   -5.1309    0.3002 C   0  0  0  0  0  0
    0.0831   -5.9301   -0.4493 C   0  0  0  0  0  0
    0.0810    7.3117    0.1188 H   0  0  0  0  0  0
   -1.1266    6.3469    0.9709 H   0  0  0  0  0  0
    1.0240    5.2182   -0.9201 H   0  0  0  0  0  0
   -1.0694    3.8162   -0.7846 H   0  0  0  0  0  0
   -0.8552    3.7565    1.0062 H   0  0  0  0  0  0
   -1.8942    7.2670   -0.9566 H   0  0  0  0  0  0
    1.8506    4.3892    1.0648 H   0  0  0  0  0  0
   -2.6547   -0.4449    0.1340 H   0  0  0  0  0  0
   -2.0125    1.8866    0.1826 H   0  0  0  0  0  0
    2.1152    0.7913   -0.3726 H   0  0  0  0  0  0
    3.6899   -2.2728    1.9010 H   0  0  0  0  0  0
    3.3234   -3.1732    4.1669 H   0  0  0  0  0  0
    1.1484   -4.2141    4.7552 H   0  0  0  0  0  0
   -0.6389   -4.3882    3.0824 H   0  0  0  0  0  0
   -0.8113   -3.0050   -2.9375 H   0  0  0  0  0  0
   -2.5641   -3.5231   -4.6034 H   0  0  0  0  0  0
   -4.9295   -3.7721   -3.8915 H   0  0  0  0  0  0
   -5.5434   -3.4984   -1.5014 H   0  0  0  0  0  0
   -3.8025   -2.9809    0.1781 H   0  0  0  0  0  0
   -1.9243   -5.2484   -0.2356 H   0  0  0  0  0  0
   -1.1617   -5.5983    1.2738 H   0  0  0  0  0  0
   -0.2526   -6.9634   -0.5853 H   0  0  0  0  0  0
    1.0300   -5.9581    0.0996 H   0  0  0  0  0  0
    0.2733   -5.5044   -1.4401 H   0  0  0  0  0  0
  1  2  1  0  0  0
  1  4  1  0  0  0
  1 30  1  0  0  0
  1 31  1  0  0  0
  2  3  1  0  0  0
  2  5  1  0  0  0
  2 32  1  0  0  0
  3  6  1  0  0  0
  3 33  1  0  0  0
  3 34  1  0  0  0
  4 35  1  0  0  0
  5 36  1  0  0  0
  6 16  1  0  0  0
  7  8  1  0  0  0
  7 13  1  0  0  0
  8  9  2  0  0  0
  8 17  1  0  0  0
  9 10  1  0  0  0
  9 14  1  0  0  0
 10 11  2  0  0  0
 10 22  1  0  0  0
 11 12  1  0  0  0
 11 28  1  0  0  0
 12 13  2  0  0  0
 12 21  1  0  0  0
 13 18  1  0  0  0
 14 15  2  0  0  0
 14 37  1  0  0  0
 15 16  1  0  0  0
 15 38  1  0  0  0
 16 17  2  0  0  0
 17 39  1  0  0  0
 18 19  2  0  0  0
 18 40  1  0  0  0
 19 20  1  0  0  0
 19 41  1  0  0  0
 20 21  2  0  0  0
 20 42  1  0  0  0
 21 43  1  0  0  0
 22 23  2  0  0  0
 22 27  1  0  0  0
 23 24  1  0  0  0
 23 44  1  0  0  0
 24 25  2  0  0  0
 24 45  1  0  0  0
 25 26  1  0  0  0
 25 46  1  0  0  0
 26 27  2  0  0  0
 26 47  1  0  0  0
 27 48  1  0  0  0
 28 29  1  0  0  0
 28 49  1  0  0  0
 28 50  1  0  0  0
 29 51  1  0  0  0
 29 52  1  0  0  0
 29 53  1  0  0  0
M  END
>  <Name>
tox-311

>  <substance>
3-[(10-Ethyl-11-phenyldibenzo-[b,f ]thiepin-3-yl)oxy]-1,2- propanediol, complexed with isopropyl alcohol 2:1

>  <CASRN>
85850-90-4

>  <from_NCI>
0

>  <RBA>
0.700000

>  <method>
RUC

>  <chemical_class>


>  <set>
1

$$$$
tox-312
  Cerius2 12190218263D 1   1.00000                          
 Structure written by MMmdl.
 56 59  0  0  0  0  0  0  0  0999 V2000
   -1.1487    4.9722    0.5630 C   0  0  0  0  0  0
   -0.3991    3.9189   -0.2626 C   0  0  0  0  0  0
    0.2718    2.8627    0.6342 C   0  0  0  0  0  0
   -2.2301    4.3940    1.2892 O   0  0  0  0  0  0
    0.5813    4.5740   -1.0902 O   0  0  0  0  0  0
    0.7634    1.8000   -0.2009 O   0  0  0  0  0  0
    4.0161    0.4607    0.3884 S   0  0  0  0  0  0
    2.4025   -0.3363    1.7328 C   0  0  0  0  0  0
    1.6746   -1.5261    1.1601 C   0  0  0  0  0  0
   -0.0198   -1.3975    0.6827 C   0  0  0  0  0  0
   -0.5537   -0.7821   -0.5336 C   0  0  0  0  0  0
    0.1487    0.0230   -1.9868 C   0  0  0  0  0  0
    1.4949    0.8713   -2.3168 C   0  0  0  0  0  0
    2.9955    1.3297   -1.3919 C   0  0  0  0  0  0
    2.2394   -1.8931    0.0582 C   0  0  0  0  0  0
    1.9458   -0.7068   -0.5082 C   0  0  0  0  0  0
    1.3901    0.7116    0.3694 C   0  0  0  0  0  0
    1.6682    0.7565    1.6750 C   0  0  0  0  0  0
    1.6707    1.4126   -3.6128 C   0  0  0  0  0  0
    0.7414    1.1677   -4.6166 C   0  0  0  0  0  0
   -0.3786    0.3705   -4.3823 C   0  0  0  0  0  0
   -0.6601   -0.1904   -3.1228 C   0  0  0  0  0  0
   -0.9200   -1.9658    1.7253 C   0  0  0  0  0  0
   -1.4193   -1.1554    2.7528 C   0  0  0  0  0  0
   -2.2461   -1.7013    3.7363 C   0  0  0  0  0  0
   -2.5714   -3.0571    3.7014 C   0  0  0  0  0  0
   -2.0700   -3.8703    2.6851 C   0  0  0  0  0  0
   -1.2430   -3.3279    1.6996 C   0  0  0  0  0  0
   -2.1069   -0.7175   -0.6227 C   0  0  0  0  0  0
   -2.6598    0.7018   -0.5620 C   0  0  0  0  0  0
   -1.5486    5.7486   -0.0986 H   0  0  0  0  0  0
   -0.4700    5.4633    1.2692 H   0  0  0  0  0  0
   -1.0971    3.4175   -0.9415 H   0  0  0  0  0  0
   -0.4506    2.4560    1.3504 H   0  0  0  0  0  0
    1.1139    3.3293    1.1585 H   0  0  0  0  0  0
   -2.6644    5.1394    1.7569 H   0  0  0  0  0  0
    1.2397    4.9767   -0.4868 H   0  0  0  0  0  0
    3.8006    1.1741   -2.1212 H   0  0  0  0  0  0
    2.9214    2.4012   -1.1678 H   0  0  0  0  0  0
    2.2241   -2.8188   -0.4884 H   0  0  0  0  0  0
    2.0920   -0.8686   -1.5751 H   0  0  0  0  0  0
    1.5925    1.5350    2.4019 H   0  0  0  0  0  0
    2.5454    2.0159   -3.8521 H   0  0  0  0  0  0
    0.9034    1.5830   -5.6110 H   0  0  0  0  0  0
   -1.0621    0.1699   -5.2087 H   0  0  0  0  0  0
   -1.5366   -0.8270   -3.1018 H   0  0  0  0  0  0
   -1.1723   -0.0963    2.7900 H   0  0  0  0  0  0
   -2.6360   -1.0683    4.5313 H   0  0  0  0  0  0
   -3.2159   -3.4815    4.4695 H   0  0  0  0  0  0
   -2.3222   -4.9290    2.6608 H   0  0  0  0  0  0
   -0.8546   -3.9718    0.9126 H   0  0  0  0  0  0
   -2.5942   -1.2613    0.1896 H   0  0  0  0  0  0
   -2.4821   -1.2489   -1.4994 H   0  0  0  0  0  0
   -3.7544    0.6760   -0.5822 H   0  0  0  0  0  0
   -2.3316    1.3142   -1.4054 H   0  0  0  0  0  0
   -2.3575    1.1996    0.3645 H   0  0  0  0  0  0
  1  2  1  0  0  0
  1  4  1  0  0  0
  1 31  1  0  0  0
  1 32  1  0  0  0
  2  3  1  0  0  0
  2  5  1  0  0  0
  2 33  1  0  0  0
  3  6  1  0  0  0
  3 34  1  0  0  0
  3 35  1  0  0  0
  4 36  1  0  0  0
  5 37  1  0  0  0
  6 17  1  0  0  0
  7  8  1  0  0  0
  7 14  1  0  0  0
  8  9  2  0  0  0
  8 18  1  0  0  0
  9 10  1  0  0  0
  9 15  1  0  0  0
 10 11  2  0  0  0
 10 23  1  0  0  0
 11 12  1  0  0  0
 11 29  1  0  0  0
 12 13  2  0  0  0
 12 22  1  0  0  0
 13 14  1  0  0  0
 13 19  1  0  0  0
 14 38  1  0  0  0
 14 39  1  0  0  0
 15 16  2  0  0  0
 15 40  1  0  0  0
 16 17  1  0  0  0
 16 41  1  0  0  0
 17 18  2  0  0  0
 18 42  1  0  0  0
 19 20  2  0  0  0
 19 43  1  0  0  0
 20 21  1  0  0  0
 20 44  1  0  0  0
 21 22  2  0  0  0
 21 45  1  0  0  0
 22 46  1  0  0  0
 23 24  2  0  0  0
 23 28  1  0  0  0
 24 25  1  0  0  0
 24 47  1  0  0  0
 25 26  2  0  0  0
 25 48  1  0  0  0
 26 27  1  0  0  0
 26 49  1  0  0  0
 27 28  2  0  0  0
 27 50  1  0  0  0
 28 51  1  0  0  0
 29 30  1  0  0  0
 29 52  1  0  0  0
 29 53  1  0  0  0
 30 54  1  0  0  0
 30 55  1  0  0  0
 30 56  1  0  0  0
M  END
>  <Name>
tox-312

>  <substance>
3-[(11-Ethyl-12-phenyl-6H -dibenzo [b,f ]thiocin-3-yl)oxy]-1,2-propanediol, hydrate (4:1)

>  <CASRN>
85850-92-6

>  <from_NCI>
0

>  <RBA>
0.020000

>  <method>
RUC

>  <chemical_class>


>  <set>
0

$$$$
tox-313
  Cerius2 12190218263D 1   1.00000                          
 Structure written by MMmdl.
 58 61  0  0  0  0  0  0  0  0999 V2000
    0.2300    5.6941   -1.0688 C   0  0  0  0  0  0
    1.5124    5.2313   -0.3609 C   0  0  0  0  0  0
    1.7380    3.7093   -0.4061 C   0  0  0  0  0  0
   -0.9321    5.3458   -0.3080 O   0  0  0  0  0  0
    1.4759    5.6765    1.0097 O   0  0  0  0  0  0
    0.6690    3.0196    0.2546 O   0  0  0  0  0  0
    0.5504   -1.1574    0.3730 C   0  0  0  0  0  0
   -0.4961   -0.3669    0.8919 C   0  0  0  0  0  0
   -1.7335   -1.0125    1.4720 C   0  0  0  0  0  0
   -2.8135   -1.3330    0.4314 C   0  0  0  0  0  0
   -2.3926   -1.7786   -0.9580 C   0  0  0  0  0  0
   -1.3386   -2.6724   -1.2408 C   0  0  0  0  0  0
   -0.4736   -3.3312   -0.2199 C   0  0  0  0  0  0
    0.4905   -2.6453    0.4550 C   0  0  0  0  0  0
   -0.4037    1.0321    0.8195 C   0  0  0  0  0  0
    0.7133    1.6523    0.2516 C   0  0  0  0  0  0
    1.7500    0.8668   -0.2499 C   0  0  0  0  0  0
    1.6699   -0.5295   -0.1872 C   0  0  0  0  0  0
   -1.0458   -2.9788   -2.5870 C   0  0  0  0  0  0
   -1.7946   -2.4484   -3.6366 C   0  0  0  0  0  0
   -2.8539   -1.5977   -3.3600 C   0  0  0  0  0  0
   -3.1496   -1.2691   -2.0372 C   0  0  0  0  0  0
    1.4386   -3.3791    1.3335 C   0  0  0  0  0  0
    1.2120   -3.4696    2.7128 C   0  0  0  0  0  0
    2.1114   -4.1561    3.5318 C   0  0  0  0  0  0
    3.2445   -4.7524    2.9800 C   0  0  0  0  0  0
    3.4810   -4.6642    1.6090 C   0  0  0  0  0  0
    2.5828   -3.9792    0.7879 C   0  0  0  0  0  0
   -0.7135   -4.8330   -0.1073 C   0  0  0  0  0  0
   -1.9156   -5.1456    0.7763 C   0  0  0  0  0  0
    0.1492    5.2589   -2.0697 H   0  0  0  0  0  0
    0.2348    6.7860   -1.1538 H   0  0  0  0  0  0
    2.3720    5.7166   -0.8365 H   0  0  0  0  0  0
    2.6756    3.4863    0.1176 H   0  0  0  0  0  0
    1.8051    3.3877   -1.4525 H   0  0  0  0  0  0
   -1.6954    5.6728   -0.8301 H   0  0  0  0  0  0
    0.5992    5.3656    1.3317 H   0  0  0  0  0  0
   -2.1626   -0.3558    2.2407 H   0  0  0  0  0  0
   -1.4693   -1.9199    2.0261 H   0  0  0  0  0  0
   -3.4143   -0.4185    0.3260 H   0  0  0  0  0  0
   -3.4954   -2.0878    0.8430 H   0  0  0  0  0  0
   -1.2155    1.6483    1.2046 H   0  0  0  0  0  0
    2.6401    1.3023   -0.6954 H   0  0  0  0  0  0
    2.4915   -1.1221   -0.5863 H   0  0  0  0  0  0
   -0.2174   -3.6451   -2.8288 H   0  0  0  0  0  0
   -1.5501   -2.7044   -4.6654 H   0  0  0  0  0  0
   -3.4497   -1.1836   -4.1710 H   0  0  0  0  0  0
   -3.9844   -0.5930   -1.8498 H   0  0  0  0  0  0
    0.3344   -3.0089    3.1611 H   0  0  0  0  0  0
    1.9276   -4.2239    4.6024 H   0  0  0  0  0  0
    3.9453   -5.2856    3.6201 H   0  0  0  0  0  0
    4.3659   -5.1287    1.1778 H   0  0  0  0  0  0
    2.7788   -3.9179   -0.2813 H   0  0  0  0  0  0
    0.1568   -5.3567    0.2988 H   0  0  0  0  0  0
   -0.8710   -5.2792   -1.0966 H   0  0  0  0  0  0
   -2.0418   -6.2291    0.8689 H   0  0  0  0  0  0
   -2.8399   -4.7371    0.3549 H   0  0  0  0  0  0
   -1.7870   -4.7339    1.7829 H   0  0  0  0  0  0
  1  2  1  0  0  0
  1  4  1  0  0  0
  1 31  1  0  0  0
  1 32  1  0  0  0
  2  3  1  0  0  0
  2  5  1  0  0  0
  2 33  1  0  0  0
  3  6  1  0  0  0
  3 34  1  0  0  0
  3 35  1  0  0  0
  4 36  1  0  0  0
  5 37  1  0  0  0
  6 16  1  0  0  0
  7  8  2  0  0  0
  7 14  1  0  0  0
  7 18  1  0  0  0
  8  9  1  0  0  0
  8 15  1  0  0  0
  9 10  1  0  0  0
  9 38  1  0  0  0
  9 39  1  0  0  0
 10 11  1  0  0  0
 10 40  1  0  0  0
 10 41  1  0  0  0
 11 12  2  0  0  0
 11 22  1  0  0  0
 12 13  1  0  0  0
 12 19  1  0  0  0
 13 14  2  0  0  0
 13 29  1  0  0  0
 14 23  1  0  0  0
 15 16  2  0  0  0
 15 42  1  0  0  0
 16 17  1  0  0  0
 17 18  2  0  0  0
 17 43  1  0  0  0
 18 44  1  0  0  0
 19 20  2  0  0  0
 19 45  1  0  0  0
 20 21  1  0  0  0
 20 46  1  0  0  0
 21 22  2  0  0  0
 21 47  1  0  0  0
 22 48  1  0  0  0
 23 24  2  0  0  0
 23 28  1  0  0  0
 24 25  1  0  0  0
 24 49  1  0  0  0
 25 26  2  0  0  0
 25 50  1  0  0  0
 26 27  1  0  0  0
 26 51  1  0  0  0
 27 28  2  0  0  0
 27 52  1  0  0  0
 28 53  1  0  0  0
 29 30  1  0  0  0
 29 54  1  0  0  0
 29 55  1  0  0  0
 30 56  1  0  0  0
 30 57  1  0  0  0
 30 58  1  0  0  0
M  END
>  <Name>
tox-313

>  <substance>
3-[(6-Ethyl-5-phenyl-11,12-dihydrodibenzo [a ,e ]cycloocten-2-yl)oxy]-1,2-propanediol

>  <CASRN>
85850-91-5

>  <from_NCI>
0

>  <RBA>
0.100000

>  <method>
RUC

>  <chemical_class>


>  <set>
0

$$$$
tox-314
  Cerius2 12190218263D 1   1.00000                          
 Structure written by MMmdl.
 24 24  0  0  0  0  0  0  0  0999 V2000
   -1.8074    0.0096   -0.8333 C   0  0  0  0  0  0
   -0.4053    0.1113   -0.7313 C   0  0  0  0  0  0
   -2.4743   -1.2539   -0.8800 C   0  0  0  0  0  0
    0.3999   -1.0319   -0.6751 C   0  0  0  0  0  0
   -1.6159   -2.3737   -0.8109 C   0  0  0  0  0  0
   -3.7402   -1.4075   -0.9743 O   0  0  0  0  0  0
   -0.2197   -2.2780   -0.7085 C   0  0  0  0  0  0
    1.9014   -0.9139   -0.5544 C   0  0  0  0  0  0
    2.3490   -0.7158    0.8675 C   0  0  0  0  0  0
    3.0176    0.3584    1.3083 C   0  0  0  0  0  0
   -2.6355    1.1156   -0.8946 O   0  0  0  0  0  0
   -2.0293    2.4066   -0.8487 C   0  0  0  0  0  0
    0.0893    1.0786   -0.6922 H   0  0  0  0  0  0
   -2.0439   -3.3807   -0.8361 H   0  0  0  0  0  0
    0.3707   -3.1921   -0.6561 H   0  0  0  0  0  0
    2.2487   -0.0947   -1.1972 H   0  0  0  0  0  0
    2.3757   -1.8210   -0.9498 H   0  0  0  0  0  0
    2.1151   -1.5170    1.5677 H   0  0  0  0  0  0
    3.3187    0.4391    2.3498 H   0  0  0  0  0  0
    3.2798    1.1820    0.6494 H   0  0  0  0  0  0
   -2.8296    3.1505   -0.9074 H   0  0  0  0  0  0
   -1.3679    2.5612   -1.7073 H   0  0  0  0  0  0
   -1.5014    2.5599    0.0981 H   0  0  0  0  0  0
   -3.9249   -2.2371   -0.9860 H   0  0  0  0  0  0
  1  2  2  0  0  0
  1  3  1  0  0  0
  1 11  1  0  0  0
  2  4  1  0  0  0
  2 13  1  0  0  0
  3  5  2  0  0  0
  3  6  1  0  0  0
  4  7  2  0  0  0
  4  8  1  0  0  0
  5  7  1  0  0  0
  5 14  1  0  0  0
  6 24  1  0  0  0
  7 15  1  0  0  0
  8  9  1  0  0  0
  8 16  1  0  0  0
  8 17  1  0  0  0
  9 10  2  0  0  0
  9 18  1  0  0  0
 10 19  1  0  0  0
 10 20  1  0  0  0
 11 12  1  0  0  0
 12 21  1  0  0  0
 12 22  1  0  0  0
 12 23  1  0  0  0
M  END
>  <Name>
tox-314

>  <substance>
Eugenol

>  <CASRN>
97-53-0

>  <from_NCI>
1

>  <RBA>
0.000000

>  <method>
RUC

>  <chemical_class>
Alkoxyphenol

>  <set>
2

$$$$
tox-315
  Cerius2 12190218263D 1   1.00000                          
 Structure written by MMmdl.
 52 54  0  0  0  0  0  0  0  0999 V2000
   -2.4625    2.3620   -1.5266 C   0  0  0  0  0  0
   -0.9392    2.3436   -1.3476 C   0  0  0  0  0  0
   -3.2049    3.5269   -1.7704 C   0  0  0  0  0  0
   -3.1608    1.1420   -1.4263 C   0  0  0  0  0  0
   -0.5586    2.1928    0.1297 C   0  0  0  0  0  0
   -0.1569    3.5037   -2.0347 C   0  0  0  0  0  0
   -4.5965    3.4751   -1.9148 C   0  0  0  0  0  0
   -4.5504    1.0894   -1.5704 C   0  0  0  0  0  0
    0.6335    1.5445    0.2401 O   0  0  0  0  0  0
   -1.2078    2.6046    1.0845 O   0  0  0  0  0  0
    1.2192    3.0312   -2.5294 C   0  0  0  0  0  0
    0.0340    4.7435   -1.1510 C   0  0  0  0  0  0
   -5.2634    2.2579   -1.8146 C   0  0  0  0  0  0
    1.1478    1.4041    1.5856 C   0  0  0  0  0  0
   -6.9740    2.1989   -1.9916 Cl  0  0  0  0  0  0
    2.6510    1.2012    1.4517 C   0  0  0  0  0  0
    0.4973    0.2761    2.2993 C   0  0  0  0  0  0
    3.1790    0.1643    0.6603 C   0  0  0  0  0  0
    3.5425    2.0625    2.1140 C   0  0  0  0  0  0
   -0.0262   -0.6068    2.8511 N   0  0  0  0  0  0
    4.5625   -0.0135    0.5581 C   0  0  0  0  0  0
    4.9236    1.8965    1.9844 C   0  0  0  0  0  0
    5.1220   -0.9960   -0.2264 O   0  0  0  0  0  0
    5.4342    0.8629    1.2012 C   0  0  0  0  0  0
    4.6754   -2.2849   -0.0366 C   0  0  0  0  0  0
    4.4588   -3.0515   -1.1829 C   0  0  0  0  0  0
    4.5091   -2.8542    1.2290 C   0  0  0  0  0  0
    4.0363   -4.3764   -1.0656 C   0  0  0  0  0  0
    4.0861   -4.1798    1.3432 C   0  0  0  0  0  0
    3.8454   -4.9384    0.1969 C   0  0  0  0  0  0
   -0.6280    1.4111   -1.8429 H   0  0  0  0  0  0
   -2.7266    4.4989   -1.8582 H   0  0  0  0  0  0
   -2.6240    0.2125   -1.2358 H   0  0  0  0  0  0
   -0.7068    3.8119   -2.9339 H   0  0  0  0  0  0
   -5.1485    4.3928   -2.1054 H   0  0  0  0  0  0
   -5.0626    0.1334   -1.4901 H   0  0  0  0  0  0
    1.7208    3.8286   -3.0888 H   0  0  0  0  0  0
    1.1192    2.1717   -3.2004 H   0  0  0  0  0  0
    1.8754    2.7447   -1.7018 H   0  0  0  0  0  0
    0.4388    5.5715   -1.7434 H   0  0  0  0  0  0
    0.7382    4.5532   -0.3336 H   0  0  0  0  0  0
   -0.9066    5.0832   -0.7100 H   0  0  0  0  0  0
    0.9716    2.3371    2.1368 H   0  0  0  0  0  0
    2.5096   -0.5006    0.1168 H   0  0  0  0  0  0
    3.1696    2.8796    2.7317 H   0  0  0  0  0  0
    5.6031    2.5771    2.4949 H   0  0  0  0  0  0
    6.5104    0.7395    1.1001 H   0  0  0  0  0  0
    4.6128   -2.6183   -2.1690 H   0  0  0  0  0  0
    4.7114   -2.2813    2.1311 H   0  0  0  0  0  0
    3.8588   -4.9722   -1.9593 H   0  0  0  0  0  0
    3.9499   -4.6239    2.3277 H   0  0  0  0  0  0
    3.5159   -5.9721    0.2882 H   0  0  0  0  0  0
  1  2  1  0  0  0
  1  3  2  0  0  0
  1  4  1  0  0  0
  2  5  1  0  0  0
  2  6  1  0  0  0
  2 31  1  0  0  0
  3  7  1  0  0  0
  3 32  1  0  0  0
  4  8  2  0  0  0
  4 33  1  0  0  0
  5  9  1  0  0  0
  5 10  2  0  0  0
  6 11  1  0  0  0
  6 12  1  0  0  0
  6 34  1  0  0  0
  7 13  2  0  0  0
  7 35  1  0  0  0
  8 13  1  0  0  0
  8 36  1  0  0  0
  9 14  1  0  0  0
 11 37  1  0  0  0
 11 38  1  0  0  0
 11 39  1  0  0  0
 12 40  1  0  0  0
 12 41  1  0  0  0
 12 42  1  0  0  0
 13 15  1  0  0  0
 14 16  1  0  0  0
 14 17  1  0  0  0
 14 43  1  0  0  0
 16 18  2  0  0  0
 16 19  1  0  0  0
 17 20  3  0  0  0
 18 21  1  0  0  0
 18 44  1  0  0  0
 19 22  2  0  0  0
 19 45  1  0  0  0
 21 23  1  0  0  0
 21 24  2  0  0  0
 22 24  1  0  0  0
 22 46  1  0  0  0
 23 25  1  0  0  0
 24 47  1  0  0  0
 25 26  2  0  0  0
 25 27  1  0  0  0
 26 28  1  0  0  0
 26 48  1  0  0  0
 27 29  2  0  0  0
 27 49  1  0  0  0
 28 30  2  0  0  0
 28 50  1  0  0  0
 29 30  1  0  0  0
 29 51  1  0  0  0
 30 52  1  0  0  0
M  END
>  <Name>
tox-315

>  <substance>
Fenvalerate

>  <CASRN>
51630-58-1

>  <from_NCI>
1

>  <RBA>
0.000000

>  <method>
hERa-FP

>  <chemical_class>
Organochlorine; Diphenyl ether

>  <set>
2

$$$$
tox-316
  Cerius2 12190218263D 1   1.00000                          
 Structure written by MMmdl.
 38 41  0  0  0  0  0  0  0  0999 V2000
   -1.8745    0.3638    0.7662 C   0  0  0  0  0  0
   -0.5973    0.3819   -0.0555 C   0  0  0  0  0  0
   -0.2392   -0.8458   -0.5082 C   0  0  0  0  0  0
   -1.2435   -1.7897    0.0101 C   0  0  0  0  0  0
   -1.3435   -3.1632   -0.1566 C   0  0  0  0  0  0
   -2.4124   -3.8342    0.4473 C   0  0  0  0  0  0
   -3.3581   -3.1256    1.1982 C   0  0  0  0  0  0
   -3.2672   -1.7459    1.3643 C   0  0  0  0  0  0
   -2.2014   -1.0961    0.7600 C   0  0  0  0  0  0
   -4.3786   -3.8351    1.7626 O   0  0  0  0  0  0
    0.9298   -1.1450   -1.3466 C   0  0  0  0  0  0
    1.0398   -0.6136   -2.6386 C   0  0  0  0  0  0
    2.1523   -0.9048   -3.4314 C   0  0  0  0  0  0
    3.1614   -1.7319   -2.9411 C   0  0  0  0  0  0
    3.0592   -2.2697   -1.6592 C   0  0  0  0  0  0
    1.9473   -1.9790   -0.8652 C   0  0  0  0  0  0
    0.0966    1.6612   -0.2652 C   0  0  0  0  0  0
   -0.5667    2.7700   -0.8059 C   0  0  0  0  0  0
    0.0846    3.9883   -0.9907 C   0  0  0  0  0  0
    1.4234    4.1185   -0.6292 C   0  0  0  0  0  0
    2.1019    3.0298   -0.0838 C   0  0  0  0  0  0
    1.4428    1.8097    0.0994 C   0  0  0  0  0  0
   -1.8526    2.6763   -1.1789 F   0  0  0  0  0  0
   -2.6783    0.9349    0.2931 H   0  0  0  0  0  0
   -1.6946    0.7183    1.7861 H   0  0  0  0  0  0
   -0.6146   -3.7163   -0.7422 H   0  0  0  0  0  0
   -2.5067   -4.9119    0.3294 H   0  0  0  0  0  0
   -3.9990   -1.1888    1.9413 H   0  0  0  0  0  0
   -4.9554   -3.2106    2.2527 H   0  0  0  0  0  0
    0.2581    0.0300   -3.0391 H   0  0  0  0  0  0
    2.2300   -0.4860   -4.4331 H   0  0  0  0  0  0
    4.0283   -1.9586   -3.5593 H   0  0  0  0  0  0
    3.8464   -2.9162   -1.2756 H   0  0  0  0  0  0
    1.8853   -2.4040    0.1355 H   0  0  0  0  0  0
   -0.4548    4.8292   -1.4179 H   0  0  0  0  0  0
    1.9379    5.0671   -0.7712 H   0  0  0  0  0  0
    3.1477    3.1288    0.2033 H   0  0  0  0  0  0
    1.9927    0.9784    0.5383 H   0  0  0  0  0  0
  1  2  1  0  0  0
  1  9  1  0  0  0
  1 24  1  0  0  0
  1 25  1  0  0  0
  2  3  2  0  0  0
  2 17  1  0  0  0
  3  4  1  0  0  0
  3 11  1  0  0  0
  4  5  2  0  0  0
  4  9  1  0  0  0
  5  6  1  0  0  0
  5 26  1  0  0  0
  6  7  2  0  0  0
  6 27  1  0  0  0
  7  8  1  0  0  0
  7 10  1  0  0  0
  8  9  2  0  0  0
  8 28  1  0  0  0
 10 29  1  0  0  0
 11 12  2  0  0  0
 11 16  1  0  0  0
 12 13  1  0  0  0
 12 30  1  0  0  0
 13 14  2  0  0  0
 13 31  1  0  0  0
 14 15  1  0  0  0
 14 32  1  0  0  0
 15 16  2  0  0  0
 15 33  1  0  0  0
 16 34  1  0  0  0
 17 18  2  0  0  0
 17 22  1  0  0  0
 18 19  1  0  0  0
 18 23  1  0  0  0
 19 20  2  0  0  0
 19 35  1  0  0  0
 20 21  1  0  0  0
 20 36  1  0  0  0
 21 22  2  0  0  0
 21 37  1  0  0  0
 22 38  1  0  0  0
M  END
>  <Name>
tox-316

>  <substance>
2-(2-Fluorophenyl)-3-phenyl-6-hydroxyindene

>  <CASRN>


>  <from_NCI>
0

>  <RBA>
49.000000

>  <method>
RUC

>  <chemical_class>
Indene

>  <set>
0

$$$$
tox-317
  Cerius2 12190218263D 1   1.00000                          
 Structure written by MMmdl.
 43 46  0  0  0  0  0  0  0  0999 V2000
   -4.1235   -0.6928   -0.2800 C   0  0  0  0  0  0
   -3.9988   -1.9048   -0.9386 C   0  0  0  0  0  0
   -2.7470   -2.2987   -1.4018 C   0  0  0  0  0  0
   -3.0190    0.1283   -0.0683 C   0  0  0  0  0  0
   -1.7409   -0.2586   -0.5075 C   0  0  0  0  0  0
   -1.6177   -1.4811   -1.2068 C   0  0  0  0  0  0
   -0.2883   -1.9863   -1.7191 C   0  0  0  0  0  0
    0.8136   -0.9309   -1.7350 C   0  0  0  0  0  0
   -0.5300    0.6554   -0.3239 C   0  0  0  0  0  0
    0.8024   -0.1457   -0.4208 C   0  0  0  0  0  0
    0.6941    2.4170    1.1222 C   0  0  0  0  0  0
   -0.5616    1.5404    0.9492 C   0  0  0  0  0  0
    1.9998    1.6004    1.0404 C   0  0  0  0  0  0
    1.9737    0.8332   -0.3111 C   0  0  0  0  0  0
    3.3972    0.3026   -0.4517 C   0  0  0  0  0  0
    4.2769    1.3917    0.2020 C   0  0  0  0  0  0
    3.3059    2.4515    0.8096 C   0  0  0  0  0  0
    3.8323    2.9594    1.9111 O   0  0  0  0  0  0
    2.0880    0.6465    2.2721 C   0  0  0  0  0  0
   -5.3280   -0.3007    0.1569 F   0  0  0  0  0  0
   -4.8703   -2.5340   -1.0931 H   0  0  0  0  0  0
   -2.6505   -3.2517   -1.9218 H   0  0  0  0  0  0
   -3.1870    1.0738    0.4386 H   0  0  0  0  0  0
   -0.4088   -2.3824   -2.7347 H   0  0  0  0  0  0
    0.0240   -2.8189   -1.0758 H   0  0  0  0  0  0
    0.6654   -0.2487   -2.5820 H   0  0  0  0  0  0
    1.7765   -1.4294   -1.8922 H   0  0  0  0  0  0
   -0.5654    1.3466   -1.1804 H   0  0  0  0  0  0
    0.8553   -0.8762    0.3962 H   0  0  0  0  0  0
    0.6367    2.9510    2.0783 H   0  0  0  0  0  0
    0.6881    3.1865    0.3391 H   0  0  0  0  0  0
   -0.7058    0.9120    1.8361 H   0  0  0  0  0  0
   -1.4218    2.2191    0.9158 H   0  0  0  0  0  0
    1.8430    1.5664   -1.1247 H   0  0  0  0  0  0
    3.6736    0.1503   -1.5000 H   0  0  0  0  0  0
    3.5247   -0.6536    0.0676 H   0  0  0  0  0  0
    4.9297    1.8594   -0.5459 H   0  0  0  0  0  0
    4.9358    0.9227    0.9456 H   0  0  0  0  0  0
    3.0751    3.1418   -0.0184 H   0  0  0  0  0  0
    3.0010    0.0431    2.2677 H   0  0  0  0  0  0
    1.2474   -0.0489    2.3343 H   0  0  0  0  0  0
    2.0828    1.2223    3.2049 H   0  0  0  0  0  0
    4.5296    3.4035    1.7132 H   0  0  0  0  0  0
  1  2  2  0  0  0
  1  4  1  0  0  0
  1 20  1  0  0  0
  2  3  1  0  0  0
  2 21  1  0  0  0
  3  6  2  0  0  0
  3 22  1  0  0  0
  4  5  2  0  0  0
  4 23  1  0  0  0
  5  6  1  0  0  0
  5  9  1  0  0  0
  6  7  1  0  0  0
  7  8  1  0  0  0
  7 24  1  0  0  0
  7 25  1  0  0  0
  8 10  1  0  0  0
  8 26  1  0  0  0
  8 27  1  0  0  0
  9 10  1  0  0  0
  9 12  1  0  0  0
  9 28  1  0  0  0
 10 14  1  0  0  0
 10 29  1  0  0  0
 11 12  1  0  0  0
 11 13  1  0  0  0
 11 30  1  0  0  0
 11 31  1  0  0  0
 12 32  1  0  0  0
 12 33  1  0  0  0
 13 14  1  0  0  0
 13 17  1  0  0  0
 13 19  1  0  0  0
 14 15  1  0  0  0
 14 34  1  0  0  0
 15 16  1  0  0  0
 15 35  1  0  0  0
 15 36  1  0  0  0
 16 17  1  0  0  0
 16 37  1  0  0  0
 16 38  1  0  0  0
 17 18  1  0  0  0
 17 39  1  0  0  0
 18 43  1  0  0  0
 19 40  1  0  0  0
 19 41  1  0  0  0
 19 42  1  0  0  0
M  END
>  <Name>
tox-317

>  <substance>
2-Fluoroestratrien-17b-ol

>  <CASRN>
101772-22-9

>  <from_NCI>
0

>  <RBA>
2.000000

>  <method>
MCF-7 cytosol

>  <chemical_class>
Steroid, nonphenolic

>  <set>
0

$$$$
tox-318
  Cerius2 12190218263D 1   1.00000                          
 Structure written by MMmdl.
 43 46  0  0  0  0  0  0  0  0999 V2000
   -4.2312   -0.5884   -0.2823 C   0  0  0  0  0  0
   -4.0921   -1.8034   -0.9406 C   0  0  0  0  0  0
   -2.8388   -2.1882   -1.3968 C   0  0  0  0  0  0
   -3.1145    0.2273   -0.0771 C   0  0  0  0  0  0
   -1.8332   -0.1596   -0.5136 C   0  0  0  0  0  0
   -1.7065   -1.3815   -1.2101 C   0  0  0  0  0  0
   -0.3806   -1.8882   -1.7211 C   0  0  0  0  0  0
    0.7239   -0.8351   -1.7330 C   0  0  0  0  0  0
   -0.6226    0.7548   -0.3280 C   0  0  0  0  0  0
    0.7094   -0.0481   -0.4199 C   0  0  0  0  0  0
    0.5998    2.5169    1.1191 C   0  0  0  0  0  0
   -0.6566    1.6419    0.9435 C   0  0  0  0  0  0
    1.9045    1.6984    1.0426 C   0  0  0  0  0  0
    1.8817    0.9294   -0.3079 C   0  0  0  0  0  0
    3.3049    0.3968   -0.4433 C   0  0  0  0  0  0
    4.1841    1.4855    0.2117 C   0  0  0  0  0  0
    3.2126    2.5474    0.8147 C   0  0  0  0  0  0
    3.7361    3.0562    1.9171 O   0  0  0  0  0  0
    1.9875    0.7462    2.2758 C   0  0  0  0  0  0
   -2.7194   -3.3635   -2.0324 F   0  0  0  0  0  0
   -5.2100   -0.2686    0.0710 H   0  0  0  0  0  0
   -4.9514   -2.4473   -1.1036 H   0  0  0  0  0  0
   -3.2737    1.1784    0.4276 H   0  0  0  0  0  0
   -0.4989   -2.2808   -2.7383 H   0  0  0  0  0  0
   -0.0703   -2.7232   -1.0798 H   0  0  0  0  0  0
    0.5805   -0.1533   -2.5813 H   0  0  0  0  0  0
    1.6864   -1.3357   -1.8861 H   0  0  0  0  0  0
   -0.6551    1.4445   -1.1859 H   0  0  0  0  0  0
    0.7589   -0.7776    0.3982 H   0  0  0  0  0  0
    0.5401    3.0524    2.0743 H   0  0  0  0  0  0
    0.5973    3.2854    0.3349 H   0  0  0  0  0  0
   -0.8046    1.0151    1.8310 H   0  0  0  0  0  0
   -1.5155    2.3221    0.9063 H   0  0  0  0  0  0
    1.7545    1.6616   -1.1229 H   0  0  0  0  0  0
    3.5844    0.2426   -1.4906 H   0  0  0  0  0  0
    3.4295   -0.5590    0.0777 H   0  0  0  0  0  0
    4.8398    1.9514   -0.5348 H   0  0  0  0  0  0
    4.8399    1.0167    0.9580 H   0  0  0  0  0  0
    2.9853    3.2369   -0.0149 H   0  0  0  0  0  0
    2.8996    0.1414    2.2752 H   0  0  0  0  0  0
    1.1457    0.0521    2.3363 H   0  0  0  0  0  0
    1.9800    1.3233    3.2079 H   0  0  0  0  0  0
    4.4346    3.4990    1.7209 H   0  0  0  0  0  0
  1  2  2  0  0  0
  1  4  1  0  0  0
  1 21  1  0  0  0
  2  3  1  0  0  0
  2 22  1  0  0  0
  3  6  2  0  0  0
  3 20  1  0  0  0
  4  5  2  0  0  0
  4 23  1  0  0  0
  5  6  1  0  0  0
  5  9  1  0  0  0
  6  7  1  0  0  0
  7  8  1  0  0  0
  7 24  1  0  0  0
  7 25  1  0  0  0
  8 10  1  0  0  0
  8 26  1  0  0  0
  8 27  1  0  0  0
  9 10  1  0  0  0
  9 12  1  0  0  0
  9 28  1  0  0  0
 10 14  1  0  0  0
 10 29  1  0  0  0
 11 12  1  0  0  0
 11 13  1  0  0  0
 11 30  1  0  0  0
 11 31  1  0  0  0
 12 32  1  0  0  0
 12 33  1  0  0  0
 13 14  1  0  0  0
 13 17  1  0  0  0
 13 19  1  0  0  0
 14 15  1  0  0  0
 14 34  1  0  0  0
 15 16  1  0  0  0
 15 35  1  0  0  0
 15 36  1  0  0  0
 16 17  1  0  0  0
 16 37  1  0  0  0
 16 38  1  0  0  0
 17 18  1  0  0  0
 17 39  1  0  0  0
 18 43  1  0  0  0
 19 40  1  0  0  0
 19 41  1  0  0  0
 19 42  1  0  0  0
M  END
>  <Name>
tox-318

>  <substance>
4-Fluoroestratrien-17b-ol

>  <CASRN>
96607-54-4

>  <from_NCI>
0

>  <RBA>
8.000000

>  <method>
MCF-7 cytosol

>  <chemical_class>
Steroid, nonphenolic

>  <set>
0

$$$$
tox-319
  Cerius2 12190218263D 1   1.00000                          
 Structure written by MMmdl.
 31 33  0  0  0  0  0  0  0  0999 V2000
    0.7051   -0.7898   -0.0426 C   0  0  0  0  0  0
    1.9154    0.1349   -0.0413 C   0  0  0  0  0  0
   -0.4633   -0.0299   -0.0290 O   0  0  0  0  0  0
    0.7296   -2.1601   -0.0552 C   0  0  0  0  0  0
    1.7429    1.5415   -0.0271 C   0  0  0  0  0  0
    3.2384   -0.2862   -0.0531 C   0  0  0  0  0  0
   -1.6895   -0.6169   -0.0250 C   0  0  0  0  0  0
   -0.6625   -2.8282   -0.0526 C   0  0  0  0  0  0
    1.6912   -2.9910   -0.0685 O   0  0  0  0  0  0
    2.7868    2.5253   -0.0238 C   0  0  0  0  0  0
    4.2996    0.6355   -0.0504 C   0  0  0  0  0  0
   -1.8560   -1.9782   -0.0359 C   0  0  0  0  0  0
   -2.8123    0.2285   -0.0091 C   0  0  0  0  0  0
   -0.8102   -4.0538   -0.0640 O   0  0  0  0  0  0
    4.1370    2.0422   -0.0361 C   0  0  0  0  0  0
    2.4717    3.7668   -0.0103 O   0  0  0  0  0  0
   -3.1442   -2.5113   -0.0309 C   0  0  0  0  0  0
   -4.1399   -0.2502   -0.0033 C   0  0  0  0  0  0
    5.1730    2.7933   -0.0349 O   0  0  0  0  0  0
   -4.2561   -1.6537   -0.0148 C   0  0  0  0  0  0
   -5.1494    0.5223    0.0113 O   0  0  0  0  0  0
    0.7202    1.9338   -0.0174 H   0  0  0  0  0  0
    3.5057   -1.3382   -0.0646 H   0  0  0  0  0  0
    5.3117    0.2166   -0.0602 H   0  0  0  0  0  0
   -2.6326    1.3071   -0.0009 H   0  0  0  0  0  0
   -3.3014   -3.5877   -0.0392 H   0  0  0  0  0  0
   -5.2479   -2.1153   -0.0114 H   0  0  0  0  0  0
    1.3816   -3.7826   -0.0738 H   0  0  0  0  0  0
    3.1788    4.2386   -0.0099 H   0  0  0  0  0  0
    5.8728    2.3108   -0.0435 H   0  0  0  0  0  0
   -5.8614    0.0581    0.0126 H   0  0  0  0  0  0
  1  2  1  0  0  0
  1  3  1  0  0  0
  1  4  2  0  0  0
  2  5  2  0  0  0
  2  6  1  0  0  0
  3  7  1  0  0  0
  4  8  1  0  0  0
  4  9  1  0  0  0
  5 10  1  0  0  0
  5 22  1  0  0  0
  6 11  2  0  0  0
  6 23  1  0  0  0
  7 12  2  0  0  0
  7 13  1  0  0  0
  8 12  1  0  0  0
  8 14  2  0  0  0
  9 28  1  0  0  0
 10 15  2  0  0  0
 10 16  1  0  0  0
 11 15  1  0  0  0
 11 24  1  0  0  0
 12 17  1  0  0  0
 13 18  2  0  0  0
 13 25  1  0  0  0
 15 19  1  0  0  0
 16 29  1  0  0  0
 17 20  2  0  0  0
 17 26  1  0  0  0
 18 20  1  0  0  0
 18 21  1  0  0  0
 19 30  1  0  0  0
 20 27  1  0  0  0
 21 31  1  0  0  0
M  END
>  <Name>
tox-319

>  <substance>
Fisetin

>  <CASRN>
528-48-3

>  <from_NCI>
1

>  <RBA>
0.005000

>  <method>
RUC

>  <chemical_class>
Flavone

>  <set>
2

$$$$
tox-320
  Cerius2 12190218263D 1   1.00000                          
 Structure written by MMmdl.
 29 31  0  0  0  0  0  0  0  0999 V2000
    0.5582   -0.6581    0.4019 C   0  0  0  0  0  0
    0.3275   -1.2560   -0.9800 C   0  0  0  0  0  0
   -0.9664   -2.0216   -0.9570 C   0  0  0  0  0  0
   -1.1680   -2.9980   -1.6788 O   0  0  0  0  0  0
   -2.0239   -1.4916   -0.0689 C   0  0  0  0  0  0
   -3.2998   -2.0640   -0.0539 C   0  0  0  0  0  0
   -4.2962   -1.5092    0.7511 C   0  0  0  0  0  0
   -4.0202   -0.3842    1.5299 C   0  0  0  0  0  0
   -2.7448    0.1841    1.5149 C   0  0  0  0  0  0
   -1.7410   -0.3791    0.7277 C   0  0  0  0  0  0
   -0.5144    0.2304    0.7699 O   0  0  0  0  0  0
    1.8598    0.1244    0.4435 C   0  0  0  0  0  0
    1.9708    1.3896   -0.1560 C   0  0  0  0  0  0
    3.1793    2.0884   -0.1254 C   0  0  0  0  0  0
    4.2922    1.5309    0.5003 C   0  0  0  0  0  0
    4.1987    0.2741    1.0946 C   0  0  0  0  0  0
    2.9911   -0.4267    1.0653 C   0  0  0  0  0  0
    0.6023   -1.4510    1.1632 H   0  0  0  0  0  0
    1.1414   -1.9405   -1.2437 H   0  0  0  0  0  0
    0.2439   -0.4866   -1.7563 H   0  0  0  0  0  0
   -3.5286   -2.9303   -0.6709 H   0  0  0  0  0  0
   -5.2922   -1.9490    0.7648 H   0  0  0  0  0  0
   -4.8013    0.0514    2.1512 H   0  0  0  0  0  0
   -2.5367    1.0597    2.1266 H   0  0  0  0  0  0
    1.1118    1.8411   -0.6517 H   0  0  0  0  0  0
    3.2517    3.0695   -0.5918 H   0  0  0  0  0  0
    5.2343    2.0759    0.5235 H   0  0  0  0  0  0
    5.0689   -0.1632    1.5815 H   0  0  0  0  0  0
    2.9418   -1.4099    1.5327 H   0  0  0  0  0  0
  1  2  1  0  0  0
  1 11  1  0  0  0
  1 12  1  0  0  0
  1 18  1  0  0  0
  2  3  1  0  0  0
  2 19  1  0  0  0
  2 20  1  0  0  0
  3  4  2  0  0  0
  3  5  1  0  0  0
  5  6  2  0  0  0
  5 10  1  0  0  0
  6  7  1  0  0  0
  6 21  1  0  0  0
  7  8  2  0  0  0
  7 22  1  0  0  0
  8  9  1  0  0  0
  8 23  1  0  0  0
  9 10  2  0  0  0
  9 24  1  0  0  0
 10 11  1  0  0  0
 12 13  2  0  0  0
 12 17  1  0  0  0
 13 14  1  0  0  0
 13 25  1  0  0  0
 14 15  2  0  0  0
 14 26  1  0  0  0
 15 16  1  0  0  0
 15 27  1  0  0  0
 16 17  2  0  0  0
 16 28  1  0  0  0
 17 29  1  0  0  0
M  END
>  <Name>
tox-320

>  <substance>
Flavanone

>  <CASRN>
17002-31-2

>  <from_NCI>
0

>  <RBA>
0.000000

>  <method>
RUC

>  <chemical_class>
Flavanone

>  <set>
0

$$$$
tox-321
  Cerius2 12190218263D 1   1.00000                          
 Structure written by MMmdl.
 27 29  0  0  0  0  0  0  0  0999 V2000
   -1.2984    1.5735    1.4181 C   0  0  0  0  0  0
   -1.4824    0.4065    0.6796 C   0  0  0  0  0  0
    0.0559    2.1446    1.5073 C   0  0  0  0  0  0
   -2.3818    2.1827    2.0591 C   0  0  0  0  0  0
   -0.4583   -0.2353    0.0303 O   0  0  0  0  0  0
   -2.7532   -0.1601    0.5776 C   0  0  0  0  0  0
    1.1200    1.4216    0.7900 C   0  0  0  0  0  0
    0.3027    3.1666    2.1409 O   0  0  0  0  0  0
   -3.6528    1.6145    1.9555 C   0  0  0  0  0  0
    0.8150    0.3087    0.1055 C   0  0  0  0  0  0
   -3.8377    0.4450    1.2159 C   0  0  0  0  0  0
    1.8430   -0.4622   -0.6230 C   0  0  0  0  0  0
    1.8343   -1.8650   -0.5746 C   0  0  0  0  0  0
    2.8279    0.1724   -1.3960 C   0  0  0  0  0  0
    2.7918   -2.6117   -1.2668 C   0  0  0  0  0  0
    3.7850   -0.5749   -2.0886 C   0  0  0  0  0  0
    3.7675   -1.9661   -2.0223 C   0  0  0  0  0  0
   -2.2446    3.0939    2.6373 H   0  0  0  0  0  0
   -2.9033   -1.0715    0.0027 H   0  0  0  0  0  0
    2.1205    1.8290    0.8605 H   0  0  0  0  0  0
   -4.5007    2.0838    2.4521 H   0  0  0  0  0  0
   -4.8300    0.0034    1.1366 H   0  0  0  0  0  0
    1.0832   -2.3934    0.0117 H   0  0  0  0  0  0
    2.8580    1.2581   -1.4789 H   0  0  0  0  0  0
    2.7739   -3.6990   -1.2150 H   0  0  0  0  0  0
    4.5429   -0.0680   -2.6837 H   0  0  0  0  0  0
    4.5128   -2.5474   -2.5623 H   0  0  0  0  0  0
  1  2  2  0  0  0
  1  3  1  0  0  0
  1  4  1  0  0  0
  2  5  1  0  0  0
  2  6  1  0  0  0
  3  7  1  0  0  0
  3  8  2  0  0  0
  4  9  2  0  0  0
  4 18  1  0  0  0
  5 10  1  0  0  0
  6 11  2  0  0  0
  6 19  1  0  0  0
  7 10  2  0  0  0
  7 20  1  0  0  0
  9 11  1  0  0  0
  9 21  1  0  0  0
 10 12  1  0  0  0
 11 22  1  0  0  0
 12 13  2  0  0  0
 12 14  1  0  0  0
 13 15  1  0  0  0
 13 23  1  0  0  0
 14 16  2  0  0  0
 14 24  1  0  0  0
 15 17  2  0  0  0
 15 25  1  0  0  0
 16 17  1  0  0  0
 16 26  1  0  0  0
 17 27  1  0  0  0
M  END
>  <Name>
tox-321

>  <substance>
Flavone

>  <CASRN>
525-82-6

>  <from_NCI>
1

>  <RBA>
0.000000

>  <method>
hERa,RUC

>  <chemical_class>
Flavone

>  <set>
0

$$$$
tox-322
  Cerius2 12190218263D 1   1.00000                          
 Structure written by MMmdl.
 26 29  0  0  0  0  0  0  0  0999 V2000
    1.2064    0.1076   -0.5632 C   0  0  0  0  0  0
    0.5227    1.2760   -0.6428 C   0  0  0  0  0  0
    0.3653   -0.9500   -0.6779 C   0  0  0  0  0  0
    2.5949    0.0065   -0.3863 C   0  0  0  0  0  0
   -0.8133    0.9402   -0.8160 C   0  0  0  0  0  0
    1.2435    2.4930   -0.5424 C   0  0  0  0  0  0
   -0.9098   -0.4243   -0.8374 C   0  0  0  0  0  0
    0.9072   -2.2588   -0.6175 C   0  0  0  0  0  0
    3.3090    1.2159   -0.2867 C   0  0  0  0  0  0
    3.1313   -1.2940   -0.3265 C   0  0  0  0  0  0
   -1.9687    1.7453   -0.9585 C   0  0  0  0  0  0
    2.6337    2.4485   -0.3647 C   0  0  0  0  0  0
   -2.1666   -1.0541   -1.0024 C   0  0  0  0  0  0
    2.2894   -2.4161   -0.4418 C   0  0  0  0  0  0
   -3.2121    1.1305   -1.1217 C   0  0  0  0  0  0
   -3.3108   -0.2658   -1.1435 C   0  0  0  0  0  0
    0.7263    3.4474   -0.6021 H   0  0  0  0  0  0
    0.2609   -3.1286   -0.7061 H   0  0  0  0  0  0
    4.3891    1.2062   -0.1486 H   0  0  0  0  0  0
    4.2017   -1.4408   -0.1906 H   0  0  0  0  0  0
   -1.8916    2.8299   -0.9415 H   0  0  0  0  0  0
    3.1978    3.3769   -0.2862 H   0  0  0  0  0  0
   -2.2428   -2.1387   -1.0193 H   0  0  0  0  0  0
    2.7171   -3.4167   -0.3940 H   0  0  0  0  0  0
   -4.1083    1.7391   -1.2323 H   0  0  0  0  0  0
   -4.2834   -0.7385   -1.2711 H   0  0  0  0  0  0
  1  2  2  0  0  0
  1  3  1  0  0  0
  1  4  1  0  0  0
  2  5  1  0  0  0
  2  6  1  0  0  0
  3  7  1  0  0  0
  3  8  2  0  0  0
  4  9  2  0  0  0
  4 10  1  0  0  0
  5  7  2  0  0  0
  5 11  1  0  0  0
  6 12  2  0  0  0
  6 17  1  0  0  0
  7 13  1  0  0  0
  8 14  1  0  0  0
  8 18  1  0  0  0
  9 12  1  0  0  0
  9 19  1  0  0  0
 10 14  2  0  0  0
 10 20  1  0  0  0
 11 15  2  0  0  0
 11 21  1  0  0  0
 12 22  1  0  0  0
 13 16  2  0  0  0
 13 23  1  0  0  0
 14 24  1  0  0  0
 15 16  1  0  0  0
 15 25  1  0  0  0
 16 26  1  0  0  0
M  END
>  <Name>
tox-322

>  <substance>
Fluoranthene

>  <CASRN>
206-44-0

>  <from_NCI>
1

>  <RBA>
0.000000

>  <method>
MCF-7 cells

>  <chemical_class>
Polycyclic aromatic hydrocarbon

>  <set>
0

$$$$
tox-323
  Cerius2 12190218263D 1   1.00000                          
 Structure written by MMmdl.
 23 25  0  0  0  0  0  0  0  0999 V2000
   -0.7145   -0.4226    0.3661 C   0  0  0  0  0  0
    0.6716   -0.4155    0.4764 C   0  0  0  0  0  0
   -1.1930    0.8690    0.5327 C   0  0  0  0  0  0
   -1.6250   -1.4760    0.1278 C   0  0  0  0  0  0
    1.1045    0.8808    0.7154 C   0  0  0  0  0  0
    1.6191   -1.4593    0.3859 C   0  0  0  0  0  0
   -0.0612    1.8352    0.7746 C   0  0  0  0  0  0
   -2.5503    1.1624    0.4722 C   0  0  0  0  0  0
   -2.9915   -1.1925    0.0651 C   0  0  0  0  0  0
    2.4512    1.1881    0.8700 C   0  0  0  0  0  0
    2.9753   -1.1618    0.5398 C   0  0  0  0  0  0
   -3.4501    0.1206    0.2366 C   0  0  0  0  0  0
    3.3875    0.1559    0.7805 C   0  0  0  0  0  0
   -1.2723   -2.4958   -0.0056 H   0  0  0  0  0  0
    1.3023   -2.4825    0.1993 H   0  0  0  0  0  0
   -0.1421    2.2983    1.7621 H   0  0  0  0  0  0
   -0.0015    2.5807   -0.0234 H   0  0  0  0  0  0
   -2.9089    2.1803    0.6049 H   0  0  0  0  0  0
   -3.7042   -1.9952   -0.1179 H   0  0  0  0  0  0
    2.7739    2.2096    1.0569 H   0  0  0  0  0  0
    3.7161   -1.9569    0.4724 H   0  0  0  0  0  0
   -4.5180    0.3295    0.1855 H   0  0  0  0  0  0
    4.4478    0.3757    0.8987 H   0  0  0  0  0  0
  1  2  1  0  0  0
  1  3  2  0  0  0
  1  4  1  0  0  0
  2  5  2  0  0  0
  2  6  1  0  0  0
  3  7  1  0  0  0
  3  8  1  0  0  0
  4  9  2  0  0  0
  4 14  1  0  0  0
  5  7  1  0  0  0
  5 10  1  0  0  0
  6 11  2  0  0  0
  6 15  1  0  0  0
  7 16  1  0  0  0
  7 17  1  0  0  0
  8 12  2  0  0  0
  8 18  1  0  0  0
  9 12  1  0  0  0
  9 19  1  0  0  0
 10 13  2  0  0  0
 10 20  1  0  0  0
 11 13  1  0  0  0
 11 21  1  0  0  0
 12 22  1  0  0  0
 13 23  1  0  0  0
M  END
>  <Name>
tox-323

>  <substance>
Fluorene

>  <CASRN>
86-73-7

>  <from_NCI>
1

>  <RBA>
0.000000

>  <method>
MCF-7 cells

>  <chemical_class>
Polycyclic aromatic hydrocarbon

>  <set>
0

$$$$
tox-324
  Cerius2 12190218263D 1   1.00000                          
 Structure written by MMmdl.
 57 59  0  0  0  0  0  0  0  0999 V2000
    2.2367   -0.8016    0.6816 C   0  0  0  0  0  0
    2.2433    0.6853    0.5477 C   0  0  0  0  0  0
    3.4021   -1.4998    0.8114 C   0  0  0  0  0  0
    0.9312   -1.5186    0.6665 C   0  0  0  0  0  0
   -0.0209   -1.2769    1.6661 C   0  0  0  0  0  0
   -1.2743   -1.9005    1.6259 C   0  0  0  0  0  0
   -1.5867   -2.7693    0.5812 C   0  0  0  0  0  0
   -0.6397   -3.0224   -0.4115 C   0  0  0  0  0  0
    0.6029   -2.3872   -0.3816 C   0  0  0  0  0  0
    2.6599    1.5036    1.6109 C   0  0  0  0  0  0
    2.6410    2.8937    1.4815 C   0  0  0  0  0  0
    2.1906    3.4651    0.2983 C   0  0  0  0  0  0
    1.7554    2.6745   -0.7585 C   0  0  0  0  0  0
    1.7790    1.2835   -0.6339 C   0  0  0  0  0  0
    3.5036   -2.9958    1.0959 C   0  0  0  0  0  0
    4.7305   -0.8334    0.7257 C   0  0  0  0  0  0
    4.0560   -3.7975   -0.0777 C   0  0  0  0  0  0
    5.5596   -0.7355    1.8513 C   0  0  0  0  0  0
    6.8063   -0.1118    1.7598 C   0  0  0  0  0  0
    7.2375    0.4164    0.5438 C   0  0  0  0  0  0
    6.4251    0.3182   -0.5841 C   0  0  0  0  0  0
    5.1792   -0.3063   -0.4952 C   0  0  0  0  0  0
   -2.7659   -3.4471    0.4502 O   0  0  0  0  0  0
   -3.9286   -2.7683    0.9517 C   0  0  0  0  0  0
   -5.1645   -3.4748    0.3651 C   0  0  0  0  0  0
   -6.4590   -2.8682    0.7464 N   0  0  0  0  0  0
   -7.5529   -3.7888    0.3983 C   0  0  0  0  0  0
   -6.6666   -1.5910    0.0472 C   0  0  0  0  0  0
    2.1694    4.7992    0.1760 F   0  0  0  0  0  0
    0.2037   -0.5959    2.4857 H   0  0  0  0  0  0
   -1.9783   -1.6980    2.4288 H   0  0  0  0  0  0
   -0.8737   -3.7023   -1.2284 H   0  0  0  0  0  0
    1.3093   -2.5717   -1.1889 H   0  0  0  0  0  0
    3.0027    1.0625    2.5448 H   0  0  0  0  0  0
    2.9721    3.5270    2.2996 H   0  0  0  0  0  0
    1.3977    3.1393   -1.6731 H   0  0  0  0  0  0
    1.4344    0.6704   -1.4646 H   0  0  0  0  0  0
    2.5347   -3.4190    1.3817 H   0  0  0  0  0  0
    4.1432   -3.1649    1.9721 H   0  0  0  0  0  0
    4.0675   -4.8645    0.1703 H   0  0  0  0  0  0
    5.0839   -3.5051   -0.3168 H   0  0  0  0  0  0
    3.4463   -3.6680   -0.9768 H   0  0  0  0  0  0
    5.2365   -1.1345    2.8116 H   0  0  0  0  0  0
    7.4406   -0.0366    2.6411 H   0  0  0  0  0  0
    8.2072    0.9061    0.4753 H   0  0  0  0  0  0
    6.7600    0.7284   -1.5349 H   0  0  0  0  0  0
    4.5586   -0.3782   -1.3871 H   0  0  0  0  0  0
   -3.9058   -1.7164    0.6451 H   0  0  0  0  0  0
   -3.9535   -2.8383    2.0459 H   0  0  0  0  0  0
   -5.1298   -4.5128    0.7234 H   0  0  0  0  0  0
   -5.0679   -3.5433   -0.7270 H   0  0  0  0  0  0
   -8.5200   -3.3630    0.6882 H   0  0  0  0  0  0
   -7.4503   -4.7309    0.9485 H   0  0  0  0  0  0
   -7.5795   -4.0153   -0.6739 H   0  0  0  0  0  0
   -7.6354   -1.1581    0.3209 H   0  0  0  0  0  0
   -6.6398   -1.7060   -1.0425 H   0  0  0  0  0  0
   -5.9118   -0.8544    0.3377 H   0  0  0  0  0  0
  1  2  1  0  0  0
  1  3  2  0  0  0
  1  4  1  0  0  0
  2 10  2  0  0  0
  2 14  1  0  0  0
  3 15  1  0  0  0
  3 16  1  0  0  0
  4  5  2  0  0  0
  4  9  1  0  0  0
  5  6  1  0  0  0
  5 30  1  0  0  0
  6  7  2  0  0  0
  6 31  1  0  0  0
  7  8  1  0  0  0
  7 23  1  0  0  0
  8  9  2  0  0  0
  8 32  1  0  0  0
  9 33  1  0  0  0
 10 11  1  0  0  0
 10 34  1  0  0  0
 11 12  2  0  0  0
 11 35  1  0  0  0
 12 13  1  0  0  0
 12 29  1  0  0  0
 13 14  2  0  0  0
 13 36  1  0  0  0
 14 37  1  0  0  0
 15 17  1  0  0  0
 15 38  1  0  0  0
 15 39  1  0  0  0
 16 18  2  0  0  0
 16 22  1  0  0  0
 17 40  1  0  0  0
 17 41  1  0  0  0
 17 42  1  0  0  0
 18 19  1  0  0  0
 18 43  1  0  0  0
 19 20  2  0  0  0
 19 44  1  0  0  0
 20 21  1  0  0  0
 20 45  1  0  0  0
 21 22  2  0  0  0
 21 46  1  0  0  0
 22 47  1  0  0  0
 23 24  1  0  0  0
 24 25  1  0  0  0
 24 48  1  0  0  0
 24 49  1  0  0  0
 25 26  1  0  0  0
 25 50  1  0  0  0
 25 51  1  0  0  0
 26 27  1  0  0  0
 26 28  1  0  0  0
 27 52  1  0  0  0
 27 53  1  0  0  0
 27 54  1  0  0  0
 28 55  1  0  0  0
 28 56  1  0  0  0
 28 57  1  0  0  0
M  END
>  <Name>
tox-324

>  <substance>
Fluorotamoxifen

>  <CASRN>
73617-96-6

>  <from_NCI>
1

>  <RBA>
0.000000

>  <method>
RUC

>  <chemical_class>
Triphenylethylene

>  <set>
0

$$$$
tox-325
  Cerius2 12190218263D 1   1.00000                          
 Structure written by MMmdl.
 51 53  0  0  0  0  0  0  0  0999 V2000
   -5.4489    2.6947    1.2814 C   0  0  0  0  0  0
   -5.0475    1.4641    1.7929 C   0  0  0  0  0  0
   -4.6074    3.4388    0.5225 N   0  0  0  0  0  0
   -6.7261    3.1627    1.5524 N   0  0  0  0  0  0
   -3.8143    0.9150    1.5840 N   0  0  0  0  0  0
   -6.0517    0.7224    2.6126 C   0  0  0  0  0  0
   -3.3741    2.9018    0.3045 C   0  0  0  0  0  0
   -7.5709    2.4252    2.3086 C   0  0  0  0  0  0
   -2.9712    1.6681    0.8180 C   0  0  0  0  0  0
   -7.3054    1.2691    2.8329 N   0  0  0  0  0  0
   -5.7534   -0.3743    3.0867 O   0  0  0  0  0  0
   -8.7743    2.9985    2.4945 N   0  0  0  0  0  0
   -1.5770    1.1503    0.5020 C   0  0  0  0  0  0
   -1.3165   -0.1139    1.1828 N   0  0  0  0  0  0
   -0.1646   -0.8563    1.0664 C   0  0  0  0  0  0
   -0.0518   -2.0529    1.7854 C   0  0  0  0  0  0
    0.9159   -0.4816    0.2608 C   0  0  0  0  0  0
    1.0962   -2.8514    1.7043 C   0  0  0  0  0  0
    2.0704   -1.2737    0.1692 C   0  0  0  0  0  0
    2.1705   -2.4615    0.8998 C   0  0  0  0  0  0
    3.3689   -3.3483    0.8245 C   0  0  0  0  0  0
    4.5584   -2.7534    0.4726 N   0  0  0  0  0  0
    3.2728   -4.5451    1.0858 O   0  0  0  0  0  0
    5.8325   -3.4995    0.3961 C   0  0  0  0  0  0
    6.7422   -2.8272   -0.6454 C   0  0  0  0  0  0
    6.5404   -3.6250    1.7829 C   0  0  0  0  0  0
    7.9313   -3.7007   -1.0490 C   0  0  0  0  0  0
    6.7908   -4.7962    2.1952 O   0  0  0  0  0  0
    6.8018   -2.5526    2.4051 O   0  0  0  0  0  0
    8.8345   -3.1245   -2.1264 C   0  0  0  0  0  0
    9.7585   -3.8885   -2.5299 O   0  0  0  0  0  0
    8.6121   -1.9531   -2.5326 O   0  0  0  0  0  0
   -6.9787    4.0594    1.1619 H   0  0  0  0  0  0
   -2.7045    3.5012   -0.3075 H   0  0  0  0  0  0
   -9.4875    2.5350    3.0480 H   0  0  0  0  0  0
   -9.0256    3.9056    2.1184 H   0  0  0  0  0  0
   -0.8446    1.8994    0.8240 H   0  0  0  0  0  0
   -1.5021    1.0121   -0.5826 H   0  0  0  0  0  0
   -2.0836   -0.4508    1.7666 H   0  0  0  0  0  0
   -0.8699   -2.3837    2.4248 H   0  0  0  0  0  0
    0.8842    0.4343   -0.3267 H   0  0  0  0  0  0
    1.1409   -3.7749    2.2784 H   0  0  0  0  0  0
    2.8657   -0.9507   -0.4979 H   0  0  0  0  0  0
    4.6187   -1.7397    0.4412 H   0  0  0  0  0  0
    5.5853   -4.5118    0.0513 H   0  0  0  0  0  0
    7.1044   -1.8638   -0.2641 H   0  0  0  0  0  0
    6.1537   -2.5968   -1.5439 H   0  0  0  0  0  0
    7.5613   -4.6685   -1.4100 H   0  0  0  0  0  0
    8.5587   -3.8998   -0.1719 H   0  0  0  0  0  0
    7.1737   -4.7540    2.9529 H   0  0  0  0  0  0
   10.2136   -3.4914   -3.1279 H   0  0  0  0  0  0
  1  2  2  0  0  0
  1  3  1  0  0  0
  1  4  1  0  0  0
  2  5  1  0  0  0
  2  6  1  0  0  0
  3  7  2  0  0  0
  4  8  1  0  0  0
  4 33  1  0  0  0
  5  9  2  0  0  0
  6 10  1  0  0  0
  6 11  2  0  0  0
  7  9  1  0  0  0
  7 34  1  0  0  0
  8 10  2  0  0  0
  8 12  1  0  0  0
  9 13  1  0  0  0
 12 35  1  0  0  0
 12 36  1  0  0  0
 13 14  1  0  0  0
 13 37  1  0  0  0
 13 38  1  0  0  0
 14 15  1  0  0  0
 14 39  1  0  0  0
 15 16  2  0  0  0
 15 17  1  0  0  0
 16 18  1  0  0  0
 16 40  1  0  0  0
 17 19  2  0  0  0
 17 41  1  0  0  0
 18 20  2  0  0  0
 18 42  1  0  0  0
 19 20  1  0  0  0
 19 43  1  0  0  0
 20 21  1  0  0  0
 21 22  1  0  0  0
 21 23  2  0  0  0
 22 24  1  0  0  0
 22 44  1  0  0  0
 24 25  1  0  0  0
 24 26  1  0  0  0
 24 45  1  0  0  0
 25 27  1  0  0  0
 25 46  1  0  0  0
 25 47  1  0  0  0
 26 28  1  0  0  0
 26 29  2  0  0  0
 27 30  1  0  0  0
 27 48  1  0  0  0
 27 49  1  0  0  0
 28 50  1  0  0  0
 30 31  1  0  0  0
 30 32  2  0  0  0
 31 51  1  0  0  0
M  END
>  <Name>
tox-325

>  <substance>
Folic acid

>  <CASRN>
59-30-3

>  <from_NCI>
1

>  <RBA>
0.000000

>  <method>
RUC

>  <chemical_class>
Pteridine

>  <set>
2

$$$$
tox-326
  Cerius2 12190218263D 1   1.00000                          
 Structure written by MMmdl.
 32 34  0  0  0  0  0  0  0  0999 V2000
   -1.4719    1.4673    0.5636 C   0  0  0  0  0  0
   -2.6731    2.1830    0.4704 C   0  0  0  0  0  0
   -3.7663    1.6349   -0.1990 C   0  0  0  0  0  0
   -4.9887    2.2259   -0.3610 O   0  0  0  0  0  0
   -5.1557    3.5219    0.2122 C   0  0  0  0  0  0
   -3.6465    0.3675   -0.7730 C   0  0  0  0  0  0
   -2.4485   -0.3486   -0.6804 C   0  0  0  0  0  0
   -1.3461    0.1951   -0.0091 C   0  0  0  0  0  0
   -0.0823   -0.5527    0.1000 C   0  0  0  0  0  0
   -0.0595   -1.7706    0.6647 C   0  0  0  0  0  0
    1.0425   -2.5722    0.8460 O   0  0  0  0  0  0
    2.2567   -2.0893    0.4283 C   0  0  0  0  0  0
    3.3770   -2.9112    0.6309 C   0  0  0  0  0  0
    4.6832   -2.5374    0.2492 C   0  0  0  0  0  0
    5.6933   -3.2865    0.4360 O   0  0  0  0  0  0
    4.7807   -1.2673   -0.3561 C   0  0  0  0  0  0
    3.6728   -0.4300   -0.5682 C   0  0  0  0  0  0
    2.4060   -0.8483   -0.1715 C   0  0  0  0  0  0
    1.2169    0.0013   -0.3789 C   0  0  0  0  0  0
    1.3087    1.0979   -0.9258 O   0  0  0  0  0  0
   -0.6342    1.9185    1.0947 H   0  0  0  0  0  0
   -2.7143    3.1650    0.9342 H   0  0  0  0  0  0
   -6.1769    3.8512   -0.0023 H   0  0  0  0  0  0
   -4.4693    4.2441   -0.2418 H   0  0  0  0  0  0
   -5.0368    3.4890    1.3002 H   0  0  0  0  0  0
   -4.4907   -0.0738   -1.3006 H   0  0  0  0  0  0
   -2.3883   -1.3323   -1.1441 H   0  0  0  0  0  0
   -0.9376   -2.2699    1.0599 H   0  0  0  0  0  0
    3.2147   -3.8818    1.1073 H   0  0  0  0  0  0
    5.7577   -0.8988   -0.6831 H   0  0  0  0  0  0
    3.8178    0.5387   -1.0416 H   0  0  0  0  0  0
    6.3914   -2.8987    0.1447 H   0  0  0  0  0  0
  1  2  2  0  0  0
  1  8  1  0  0  0
  1 21  1  0  0  0
  2  3  1  0  0  0
  2 22  1  0  0  0
  3  4  1  0  0  0
  3  6  2  0  0  0
  4  5  1  0  0  0
  5 23  1  0  0  0
  5 24  1  0  0  0
  5 25  1  0  0  0
  6  7  1  0  0  0
  6 26  1  0  0  0
  7  8  2  0  0  0
  7 27  1  0  0  0
  8  9  1  0  0  0
  9 10  2  0  0  0
  9 19  1  0  0  0
 10 11  1  0  0  0
 10 28  1  0  0  0
 11 12  1  0  0  0
 12 13  2  0  0  0
 12 18  1  0  0  0
 13 14  1  0  0  0
 13 29  1  0  0  0
 14 15  1  0  0  0
 14 16  2  0  0  0
 15 32  1  0  0  0
 16 17  1  0  0  0
 16 30  1  0  0  0
 17 18  2  0  0  0
 17 31  1  0  0  0
 18 19  1  0  0  0
 19 20  2  0  0  0
M  END
>  <Name>
tox-326

>  <substance>
Formononetin

>  <CASRN>
485-72-3

>  <from_NCI>
1

>  <RBA>
0.000700

>  <method>
hERa,RUC

>  <chemical_class>
Isoflavone

>  <set>
0

$$$$
tox-327
  Cerius2 12190218263D 1   1.00000                          
 Structure written by MMmdl.
 11 11  0  0  0  0  0  0  0  0999 V2000
    0.5870   -0.4564   -0.5238 C   0  0  0  0  0  0
    0.1004    0.8295   -0.6574 C   0  0  0  0  0  0
   -0.4204   -1.3528   -0.7605 O   0  0  0  0  0  0
    1.8965   -0.9604   -0.1975 C   0  0  0  0  0  0
   -1.2707    0.7123   -0.9920 C   0  0  0  0  0  0
   -1.5394   -0.6349   -1.0426 C   0  0  0  0  0  0
    2.8876   -0.2633    0.0377 O   0  0  0  0  0  0
    0.6720    1.7397   -0.5275 H   0  0  0  0  0  0
    1.9768   -2.0604   -0.1657 H   0  0  0  0  0  0
   -1.9777    1.5113   -1.1741 H   0  0  0  0  0  0
   -2.4310   -1.2119   -1.2545 H   0  0  0  0  0  0
  1  2  2  0  0  0
  1  3  1  0  0  0
  1  4  1  0  0  0
  2  5  1  0  0  0
  2  8  1  0  0  0
  3  6  1  0  0  0
  4  7  2  0  0  0
  4  9  1  0  0  0
  5  6  2  0  0  0
  5 10  1  0  0  0
  6 11  1  0  0  0
M  END
>  <Name>
tox-327

>  <substance>
Furfural

>  <CASRN>
98-01-1

>  <from_NCI>
1

>  <RBA>
0.000000

>  <method>
RUC

>  <chemical_class>
Heterocyclic aromatic aldehyde

>  <set>
1

$$$$
tox-328
  Cerius2 12190218263D 1   1.00000                          
 Structure written by MMmdl.
 30 32  0  0  0  0  0  0  0  0999 V2000
   -2.1231    1.3422    0.0499 C   0  0  0  0  0  0
   -2.0946    0.0901   -0.5848 C   0  0  0  0  0  0
   -1.0086    2.0083    0.4981 O   0  0  0  0  0  0
   -3.3317    2.0165    0.2755 C   0  0  0  0  0  0
   -0.7280   -0.5273   -0.7824 C   0  0  0  0  0  0
   -3.3136   -0.5311   -1.0103 C   0  0  0  0  0  0
    0.2059    1.3973    0.3654 C   0  0  0  0  0  0
   -4.5689    1.4928   -0.1074 C   0  0  0  0  0  0
    0.4398    0.2154   -0.2166 C   0  0  0  0  0  0
   -0.5379   -1.5821   -1.3868 O   0  0  0  0  0  0
   -4.4933    0.2277   -0.7382 C   0  0  0  0  0  0
   -3.4260   -1.6663   -1.5882 O   0  0  0  0  0  0
   -5.6682    2.0993    0.0944 O   0  0  0  0  0  0
    1.8142   -0.3136   -0.2668 C   0  0  0  0  0  0
    2.8366    0.3868   -0.9086 C   0  0  0  0  0  0
    2.1365   -1.5264    0.3412 C   0  0  0  0  0  0
    4.1470   -0.1239   -0.9357 C   0  0  0  0  0  0
    3.4537   -2.0190    0.3031 C   0  0  0  0  0  0
    4.5121   -1.3430   -0.3335 C   0  0  0  0  0  0
    5.6997   -1.7962   -0.3623 O   0  0  0  0  0  0
   -3.2888    2.9890    0.7727 H   0  0  0  0  0  0
    0.9775    2.0150    0.8116 H   0  0  0  0  0  0
   -5.4490   -0.2190   -1.0525 H   0  0  0  0  0  0
    2.6360    1.3372   -1.4017 H   0  0  0  0  0  0
    1.3739   -2.1087    0.8567 H   0  0  0  0  0  0
    4.9049    0.4701   -1.4549 H   0  0  0  0  0  0
    3.6446   -2.9755    0.7987 H   0  0  0  0  0  0
   -4.2463   -1.8246   -1.7447 H   0  0  0  0  0  0
   -6.3102    1.6292   -0.2046 H   0  0  0  0  0  0
    5.7298   -2.5386    0.0506 H   0  0  0  0  0  0
  1  2  2  0  0  0
  1  3  1  0  0  0
  1  4  1  0  0  0
  2  5  1  0  0  0
  2  6  1  0  0  0
  3  7  1  0  0  0
  4  8  2  0  0  0
  4 21  1  0  0  0
  5  9  1  0  0  0
  5 10  2  0  0  0
  6 11  2  0  0  0
  6 12  1  0  0  0
  7  9  2  0  0  0
  7 22  1  0  0  0
  8 11  1  0  0  0
  8 13  1  0  0  0
  9 14  1  0  0  0
 11 23  1  0  0  0
 12 28  1  0  0  0
 13 29  1  0  0  0
 14 15  2  0  0  0
 14 16  1  0  0  0
 15 17  1  0  0  0
 15 24  1  0  0  0
 16 18  2  0  0  0
 16 25  1  0  0  0
 17 19  2  0  0  0
 17 26  1  0  0  0
 18 19  1  0  0  0
 18 27  1  0  0  0
 19 20  1  0  0  0
 20 30  1  0  0  0
M  END
>  <Name>
tox-328

>  <substance>
Genistein

>  <CASRN>
446-72-0

>  <from_NCI>
1

>  <RBA>
1.700000

>  <method>
GST-hERadef,GST-mERadef,hERa,hERa,hERa,hERa,hERa-FP,MCF-7 cytosol,MCF-7 cytosol,RUC,RUC

>  <chemical_class>
Isoflavone

>  <set>
1

$$$$
tox-329
  Cerius2 12190218263D 1   1.00000                          
 Structure written by MMmdl.
 51 54  0  0  0  0  0  0  0  0999 V2000
    0.8745    2.2630    0.8454 C   0  0  0  0  0  0
   -0.3050    1.3142    0.8222 C   0  0  0  0  0  0
    1.2163    2.9540   -0.4352 C   0  0  0  0  0  0
   -3.3845   -2.5623    0.4399 C   0  0  0  0  0  0
   -4.7248   -3.2913    0.8705 C   0  0  0  0  0  0
   -1.0027    1.2243   -0.4029 C   0  0  0  0  0  0
   -4.5456   -4.8801    0.7848 C   0  0  0  0  0  0
   -3.0241   -2.9970   -0.8715 O   0  0  0  0  0  0
   -0.7217    0.5469    1.9703 C   0  0  0  0  0  0
    0.4316    2.7320   -1.4957 C   0  0  0  0  0  0
   -3.7941   -5.3158   -0.5699 C   0  0  0  0  0  0
   -2.5628   -4.3577   -0.8856 C   0  0  0  0  0  0
   -0.6707    1.9273   -1.5346 O   0  0  0  0  0  0
   -2.5225   -0.3753    0.5234 C   0  0  0  0  0  0
   -2.1118    0.3929   -0.5479 C   0  0  0  0  0  0
   -3.6491   -1.1382    0.3772 O   0  0  0  0  0  0
   -1.8555   -0.2783    1.7506 C   0  0  0  0  0  0
    2.3820    3.8461   -0.5665 C   0  0  0  0  0  0
    1.5419    2.4954    1.8526 O   0  0  0  0  0  0
   -5.0099   -2.9665    2.1408 O   0  0  0  0  0  0
    3.6741    3.3742   -0.3377 C   0  0  0  0  0  0
    2.2320    5.1832   -0.9375 C   0  0  0  0  0  0
   -5.7699   -5.4287    0.7642 O   0  0  0  0  0  0
   -0.1751    0.5530    3.1258 O   0  0  0  0  0  0
   -3.3314   -6.5585   -0.3875 O   0  0  0  0  0  0
    4.6745    5.5805   -0.8514 C   0  0  0  0  0  0
    4.7840    4.2270   -0.4792 C   0  0  0  0  0  0
    3.3551    6.0193   -1.0728 C   0  0  0  0  0  0
   -1.9418   -4.5859   -2.3388 C   0  0  0  0  0  0
    5.6837    6.3436   -0.9768 O   0  0  0  0  0  0
   -0.7718   -3.9561   -2.4296 O   0  0  0  0  0  0
   -2.5729   -2.7865    1.1481 H   0  0  0  0  0  0
   -5.4433   -3.0157    0.0785 H   0  0  0  0  0  0
   -3.8517   -5.1417    1.6058 H   0  0  0  0  0  0
    0.5938    3.1777   -2.4710 H   0  0  0  0  0  0
   -4.5060   -5.1105   -1.3879 H   0  0  0  0  0  0
   -1.7764   -4.4824   -0.1237 H   0  0  0  0  0  0
   -2.6432    0.3428   -1.4948 H   0  0  0  0  0  0
   -2.2470   -0.8690    2.5847 H   0  0  0  0  0  0
    3.8431    2.3377   -0.0484 H   0  0  0  0  0  0
    1.2437    5.6016   -1.1242 H   0  0  0  0  0  0
    5.7719    3.7984   -0.2865 H   0  0  0  0  0  0
    3.1735    7.0578   -1.3651 H   0  0  0  0  0  0
   -2.7400   -4.2813   -3.0357 H   0  0  0  0  0  0
   -1.9235   -5.6759   -2.4891 H   0  0  0  0  0  0
   -5.7280   -3.3544    2.3781 H   0  0  0  0  0  0
   -5.7006   -6.2746    0.7188 H   0  0  0  0  0  0
   -0.5942    0.0219    3.6403 H   0  0  0  0  0  0
   -2.9279   -6.8165   -1.0897 H   0  0  0  0  0  0
    5.4250    7.1202   -1.2058 H   0  0  0  0  0  0
   -0.4432   -4.0790   -3.2038 H   0  0  0  0  0  0
  1  2  1  0  0  0
  1  3  1  0  0  0
  1 19  2  0  0  0
  2  6  2  0  0  0
  2  9  1  0  0  0
  3 10  2  0  0  0
  3 18  1  0  0  0
  4  5  1  0  0  0
  4  8  1  0  0  0
  4 16  1  0  0  0
  4 32  1  0  0  0
  5  7  1  0  0  0
  5 20  1  0  0  0
  5 33  1  0  0  0
  6 13  1  0  0  0
  6 15  1  0  0  0
  7 11  1  0  0  0
  7 23  1  0  0  0
  7 34  1  0  0  0
  8 12  1  0  0  0
  9 17  2  0  0  0
  9 24  1  0  0  0
 10 13  1  0  0  0
 10 35  1  0  0  0
 11 12  1  0  0  0
 11 25  1  0  0  0
 11 36  1  0  0  0
 12 29  1  0  0  0
 12 37  1  0  0  0
 14 15  2  0  0  0
 14 16  1  0  0  0
 14 17  1  0  0  0
 15 38  1  0  0  0
 17 39  1  0  0  0
 18 21  2  0  0  0
 18 22  1  0  0  0
 20 46  1  0  0  0
 21 27  1  0  0  0
 21 40  1  0  0  0
 22 28  2  0  0  0
 22 41  1  0  0  0
 23 47  1  0  0  0
 24 48  1  0  0  0
 25 49  1  0  0  0
 26 27  2  0  0  0
 26 28  1  0  0  0
 26 30  1  0  0  0
 27 42  1  0  0  0
 28 43  1  0  0  0
 29 31  1  0  0  0
 29 44  1  0  0  0
 29 45  1  0  0  0
 30 50  1  0  0  0
 31 51  1  0  0  0
M  END
>  <Name>
tox-329

>  <substance>
Genistin

>  <CASRN>
529-59-9

>  <from_NCI>
1

>  <RBA>
0.000000

>  <method>
RUC

>  <chemical_class>
Isoflavone

>  <set>
1

$$$$
tox-330
  Cerius2 12190218263D 1   1.00000                          
 Structure written by MMmdl.
 43 47  0  0  0  0  0  0  0  0999 V2000
   -2.6225    0.3817   -1.2701 C   0  0  0  0  0  0
   -2.7609   -0.9545   -0.8928 C   0  0  0  0  0  0
   -1.6362   -1.7158   -0.5765 C   0  0  0  0  0  0
   -0.3557   -1.1458   -0.6215 C   0  0  0  0  0  0
   -0.2264    0.2051   -0.9805 C   0  0  0  0  0  0
   -1.3567    0.9731   -1.3226 C   0  0  0  0  0  0
    0.8561   -2.0016   -0.3365 C   0  0  0  0  0  0
    2.1900   -1.2236   -0.4120 C   0  0  0  0  0  0
    1.9590    0.2602   -0.1326 C   0  0  0  0  0  0
    1.0061    0.8115   -1.0562 O   0  0  0  0  0  0
    0.7367   -2.5833    0.9976 O   0  0  0  0  0  0
    2.0309   -2.6441    1.4480 C   0  0  0  0  0  0
    2.9282   -1.9095    0.6839 C   0  0  0  0  0  0
   -1.2506    2.3732   -1.7174 C   0  0  0  0  0  0
   -2.3679    3.0284   -2.0438 C   0  0  0  0  0  0
   -3.7398    2.4001   -2.0243 C   0  0  0  0  0  0
   -3.7883    1.0308   -1.5648 O   0  0  0  0  0  0
    2.4255   -3.3414    2.5719 C   0  0  0  0  0  0
    3.7753   -3.3001    2.9119 C   0  0  0  0  0  0
    4.6989   -2.5720    2.1491 C   0  0  0  0  0  0
    4.2722   -1.8624    1.0219 C   0  0  0  0  0  0
   -4.3241    2.4050   -3.4413 C   0  0  0  0  0  0
   -4.6512    3.1986   -1.0854 C   0  0  0  0  0  0
    2.8572   -1.4197   -1.6647 O   0  0  0  0  0  0
    4.1742   -3.9930    4.0188 O   0  0  0  0  0  0
   -3.7479   -1.4118   -0.8529 H   0  0  0  0  0  0
   -1.7635   -2.7627   -0.3016 H   0  0  0  0  0  0
    0.8622   -2.8331   -1.0570 H   0  0  0  0  0  0
    2.8903    0.8206   -0.2752 H   0  0  0  0  0  0
    1.6185    0.4553    0.8936 H   0  0  0  0  0  0
   -0.2802    2.8583   -1.7457 H   0  0  0  0  0  0
   -2.3002    4.0716   -2.3469 H   0  0  0  0  0  0
    1.7115   -3.9029    3.1648 H   0  0  0  0  0  0
    5.7513   -2.5445    2.4247 H   0  0  0  0  0  0
    4.9801   -1.2867    0.4307 H   0  0  0  0  0  0
   -5.3254    1.9585   -3.4524 H   0  0  0  0  0  0
   -3.7100    1.8000   -4.1193 H   0  0  0  0  0  0
   -4.3943    3.4178   -3.8530 H   0  0  0  0  0  0
   -5.6576    2.7648   -1.0556 H   0  0  0  0  0  0
   -4.7377    4.2473   -1.3903 H   0  0  0  0  0  0
   -4.2731    3.1695   -0.0563 H   0  0  0  0  0  0
    2.3460   -0.9029   -2.3227 H   0  0  0  0  0  0
    5.1415   -3.8702    4.1295 H   0  0  0  0  0  0
  1  2  2  0  0  0
  1  6  1  0  0  0
  1 17  1  0  0  0
  2  3  1  0  0  0
  2 26  1  0  0  0
  3  4  2  0  0  0
  3 27  1  0  0  0
  4  5  1  0  0  0
  4  7  1  0  0  0
  5  6  2  0  0  0
  5 10  1  0  0  0
  6 14  1  0  0  0
  7  8  1  0  0  0
  7 11  1  0  0  0
  7 28  1  0  0  0
  8  9  1  0  0  0
  8 13  1  0  0  0
  8 24  1  0  0  0
  9 10  1  0  0  0
  9 29  1  0  0  0
  9 30  1  0  0  0
 11 12  1  0  0  0
 12 13  2  0  0  0
 12 18  1  0  0  0
 13 21  1  0  0  0
 14 15  2  0  0  0
 14 31  1  0  0  0
 15 16  1  0  0  0
 15 32  1  0  0  0
 16 17  1  0  0  0
 16 22  1  0  0  0
 16 23  1  0  0  0
 18 19  2  0  0  0
 18 33  1  0  0  0
 19 20  1  0  0  0
 19 25  1  0  0  0
 20 21  2  0  0  0
 20 34  1  0  0  0
 21 35  1  0  0  0
 22 36  1  0  0  0
 22 37  1  0  0  0
 22 38  1  0  0  0
 23 39  1  0  0  0
 23 40  1  0  0  0
 23 41  1  0  0  0
 24 42  1  0  0  0
 25 43  1  0  0  0
M  END
>  <Name>
tox-330

>  <substance>
Glyceollin

>  <CASRN>
66241-09-6

>  <from_NCI>
0

>  <RBA>
0.200000

>  <method>
hERa-FP

>  <chemical_class>
Isoflavone

>  <set>
2

$$$$
tox-331
  Cerius2 12190218263D 1   1.00000                          
 Structure written by MMmdl.
 33 35  0  0  0  0  0  0  0  0999 V2000
    1.4142    0.2666    0.2686 C   0  0  0  0  0  0
   -1.0158    0.7014   -0.2550 C   0  0  0  0  0  0
    0.0294   -0.2697    0.1280 C   0  0  0  0  0  0
    1.5865    1.5794    0.0460 C   0  0  0  0  0  0
   -0.6668    2.0272   -0.4444 C   0  0  0  0  0  0
    0.6151    2.4900   -0.2951 O   0  0  0  0  0  0
   -2.3426    0.3028   -0.4241 C   0  0  0  0  0  0
   -1.6466    2.9615   -0.8047 C   0  0  0  0  0  0
   -3.3227    1.2453   -0.7865 C   0  0  0  0  0  0
   -3.0085    2.6267   -0.9929 C   0  0  0  0  0  0
    2.5622   -0.5897    0.6124 C   0  0  0  0  0  0
   -0.2478   -1.4505    0.3256 O   0  0  0  0  0  0
    2.8696   -1.7165   -0.1497 C   0  0  0  0  0  0
    3.3809   -0.3005    1.7052 C   0  0  0  0  0  0
    4.8206   -2.2676    1.2720 C   0  0  0  0  0  0
   -3.8583    3.5231   -1.3220 O   0  0  0  0  0  0
   -4.6519    0.9114   -0.9686 O   0  0  0  0  0  0
    4.4778   -1.1240    2.0177 C   0  0  0  0  0  0
    3.9717   -2.5267    0.1794 C   0  0  0  0  0  0
    5.8144   -3.0058    1.5618 O   0  0  0  0  0  0
   -5.0312   -0.4517   -0.7824 C   0  0  0  0  0  0
    2.5461    2.0814    0.1057 H   0  0  0  0  0  0
   -2.5897   -0.7429   -0.2687 H   0  0  0  0  0  0
   -1.3274    3.9983   -0.9441 H   0  0  0  0  0  0
    2.2635   -1.9852   -1.0140 H   0  0  0  0  0  0
    3.1816    0.5638    2.3377 H   0  0  0  0  0  0
    5.0809   -0.8455    2.8870 H   0  0  0  0  0  0
    4.1616   -3.3956   -0.4576 H   0  0  0  0  0  0
   -6.1068   -0.5249   -0.9696 H   0  0  0  0  0  0
   -4.8498   -0.7728    0.2484 H   0  0  0  0  0  0
   -4.5230   -1.1027   -1.5010 H   0  0  0  0  0  0
   -4.6279    3.1701   -1.3970 H   0  0  0  0  0  0
    5.8647   -3.6451    1.0039 H   0  0  0  0  0  0
  1  3  1  0  0  0
  1  4  2  0  0  0
  1 11  1  0  0  0
  2  3  1  0  0  0
  2  5  2  0  0  0
  2  7  1  0  0  0
  3 12  2  0  0  0
  4  6  1  0  0  0
  4 22  1  0  0  0
  5  6  1  0  0  0
  5  8  1  0  0  0
  7  9  2  0  0  0
  7 23  1  0  0  0
  8 10  2  0  0  0
  8 24  1  0  0  0
  9 10  1  0  0  0
  9 17  1  0  0  0
 10 16  1  0  0  0
 11 13  2  0  0  0
 11 14  1  0  0  0
 13 19  1  0  0  0
 13 25  1  0  0  0
 14 18  2  0  0  0
 14 26  1  0  0  0
 15 18  1  0  0  0
 15 19  2  0  0  0
 15 20  1  0  0  0
 16 32  1  0  0  0
 17 21  1  0  0  0
 18 27  1  0  0  0
 19 28  1  0  0  0
 20 33  1  0  0  0
 21 29  1  0  0  0
 21 30  1  0  0  0
 21 31  1  0  0  0
M  END
>  <Name>
tox-331

>  <substance>
Glycitein

>  <CASRN>
40957-83-3

>  <from_NCI>
1

>  <RBA>
0.020000

>  <method>
hERa

>  <chemical_class>
Isoflavone

>  <set>
1

$$$$
tox-332
  Cerius2 12190218263D 1   1.00000                          
 Structure written by MMmdl.
 51 54  0  0  0  0  0  0  0  0999 V2000
   -1.6703    1.6483   -1.5363 C   0  0  0  0  0  0
   -2.0519    0.3729   -1.9879 C   0  0  0  0  0  0
   -1.1224   -0.6712   -1.9234 C   0  0  0  0  0  0
    0.1716   -0.4335   -1.4348 C   0  0  0  0  0  0
    0.5439    0.8418   -1.0185 C   0  0  0  0  0  0
   -0.3726    1.8869   -1.0766 C   0  0  0  0  0  0
    1.1650   -1.5262   -1.3636 C   0  0  0  0  0  0
    2.5212   -1.1560   -0.8696 C   0  0  0  0  0  0
    2.7189    0.1217   -0.5097 C   0  0  0  0  0  0
    1.7950    1.1371   -0.5436 O   0  0  0  0  0  0
    3.6262   -2.1236   -0.7970 C   0  0  0  0  0  0
    4.0799   -2.7692   -1.9561 C   0  0  0  0  0  0
    5.1457   -3.6708   -1.8943 C   0  0  0  0  0  0
    5.7596   -3.9290   -0.6750 C   0  0  0  0  0  0
    5.3239   -3.3035    0.4876 C   0  0  0  0  0  0
    4.2571   -2.4015    0.4256 C   0  0  0  0  0  0
    0.8704   -2.6741   -1.6896 O   0  0  0  0  0  0
    6.7994   -4.8106   -0.6555 O   0  0  0  0  0  0
   -2.4946    2.7438   -1.5852 O   0  0  0  0  0  0
   -3.6388    2.6489   -0.7035 C   0  0  0  0  0  0
   -4.3558    4.0189   -0.7289 C   0  0  0  0  0  0
   -5.6073    3.9653    0.1645 C   0  0  0  0  0  0
   -5.3003    3.3838    1.5598 C   0  0  0  0  0  0
   -4.3741    2.1400    1.4944 C   0  0  0  0  0  0
   -3.2486    2.3231    0.6386 O   0  0  0  0  0  0
   -3.4596    5.0677   -0.3032 O   0  0  0  0  0  0
   -6.6271    3.2063   -0.5036 O   0  0  0  0  0  0
   -5.0874    0.9758    1.0987 O   0  0  0  0  0  0
   -4.7065    4.4198    2.3666 O   0  0  0  0  0  0
   -3.3159    0.2561   -2.5001 O   0  0  0  0  0  0
   -3.7651   -1.0516   -2.8510 C   0  0  0  0  0  0
   -1.3726   -1.6732   -2.2598 H   0  0  0  0  0  0
   -0.0825    2.8853   -0.7560 H   0  0  0  0  0  0
    3.6660    0.5069   -0.1475 H   0  0  0  0  0  0
    3.6127   -2.5719   -2.9199 H   0  0  0  0  0  0
    5.4916   -4.1645   -2.7994 H   0  0  0  0  0  0
    5.7986   -3.5013    1.4457 H   0  0  0  0  0  0
    3.9232   -1.9204    1.3439 H   0  0  0  0  0  0
    7.1206   -4.8880    0.2689 H   0  0  0  0  0  0
   -4.3231    1.8884   -1.0941 H   0  0  0  0  0  0
   -4.6333    4.2507   -1.7638 H   0  0  0  0  0  0
   -5.9938    4.9854    0.2833 H   0  0  0  0  0  0
   -6.2434    3.1017    2.0430 H   0  0  0  0  0  0
   -3.9749    1.9569    2.4990 H   0  0  0  0  0  0
   -3.9794    5.8984   -0.3139 H   0  0  0  0  0  0
   -7.4523    3.3346    0.0120 H   0  0  0  0  0  0
   -4.6737    0.2387    1.5933 H   0  0  0  0  0  0
   -4.6308    4.0555    3.2740 H   0  0  0  0  0  0
   -4.8163   -0.9736   -3.1459 H   0  0  0  0  0  0
   -3.7098   -1.7331   -1.9957 H   0  0  0  0  0  0
   -3.2034   -1.4407   -3.7070 H   0  0  0  0  0  0
  1  2  2  0  0  0
  1  6  1  0  0  0
  1 19  1  0  0  0
  2  3  1  0  0  0
  2 30  1  0  0  0
  3  4  2  0  0  0
  3 32  1  0  0  0
  4  5  1  0  0  0
  4  7  1  0  0  0
  5  6  2  0  0  0
  5 10  1  0  0  0
  6 33  1  0  0  0
  7  8  1  0  0  0
  7 17  2  0  0  0
  8  9  2  0  0  0
  8 11  1  0  0  0
  9 10  1  0  0  0
  9 34  1  0  0  0
 11 12  2  0  0  0
 11 16  1  0  0  0
 12 13  1  0  0  0
 12 35  1  0  0  0
 13 14  2  0  0  0
 13 36  1  0  0  0
 14 15  1  0  0  0
 14 18  1  0  0  0
 15 16  2  0  0  0
 15 37  1  0  0  0
 16 38  1  0  0  0
 18 39  1  0  0  0
 19 20  1  0  0  0
 20 21  1  0  0  0
 20 25  1  0  0  0
 20 40  1  0  0  0
 21 22  1  0  0  0
 21 26  1  0  0  0
 21 41  1  0  0  0
 22 23  1  0  0  0
 22 27  1  0  0  0
 22 42  1  0  0  0
 23 24  1  0  0  0
 23 29  1  0  0  0
 23 43  1  0  0  0
 24 25  1  0  0  0
 24 28  1  0  0  0
 24 44  1  0  0  0
 26 45  1  0  0  0
 27 46  1  0  0  0
 28 47  1  0  0  0
 29 48  1  0  0  0
 30 31  1  0  0  0
 31 49  1  0  0  0
 31 50  1  0  0  0
 31 51  1  0  0  0
M  END
>  <Name>
tox-332

>  <substance>
Glycitin

>  <CASRN>
40246-10-4

>  <from_NCI>
0

>  <RBA>
0.000800

>  <method>
hERb

>  <chemical_class>
Isoflavone

>  <set>
2

$$$$
tox-333
  Cerius2 12190218263D 1   1.00000                          
 Structure written by MMmdl.
 22 24  0  0  0  0  0  0  0  0999 V2000
   -0.9811    0.8138    0.5023 C   0  0  0  0  0  0
    0.4293    0.3247    0.8572 C   0  0  0  0  0  0
   -0.7142    1.1734   -1.0278 C   0  0  0  0  0  0
   -1.9358   -0.3459    0.2924 C   0  0  0  0  0  0
   -1.5538    2.1454    1.4945 Cl  0  0  0  0  0  0
    0.7291   -0.7235   -0.2567 C   0  0  0  0  0  0
    1.1154   -0.2507    2.0729 C   0  0  0  0  0  0
   -0.2971   -0.2908   -1.3571 C   0  0  0  0  0  0
    0.5658    2.3975   -1.3926 Cl  0  0  0  0  0  0
   -2.1810    1.7724   -1.9303 Cl  0  0  0  0  0  0
   -1.5772   -0.9695   -0.8432 C   0  0  0  0  0  0
   -3.2076   -0.7418    1.3416 Cl  0  0  0  0  0  0
    2.1963   -0.8167   -0.0051 C   0  0  0  0  0  0
    2.3859   -0.6929    1.3322 C   0  0  0  0  0  0
    0.2924   -1.6172    2.8271 Cl  0  0  0  0  0  0
    0.1818   -0.6537   -3.0005 Cl  0  0  0  0  0  0
   -2.2770   -2.3505   -1.5392 Cl  0  0  0  0  0  0
    1.0447    1.2300    0.7121 H   0  0  0  0  0  0
    0.4187   -1.7487    0.0172 H   0  0  0  0  0  0
    1.3306    0.5113    2.8278 H   0  0  0  0  0  0
    2.9441   -1.1161   -0.7263 H   0  0  0  0  0  0
    3.3358   -0.8157    1.8365 H   0  0  0  0  0  0
  1  2  1  0  0  0
  1  3  1  0  0  0
  1  4  1  0  0  0
  1  5  1  0  0  0
  2  6  1  0  0  0
  2  7  1  0  0  0
  2 18  1  0  0  0
  3  8  1  0  0  0
  3  9  1  0  0  0
  3 10  1  0  0  0
  4 11  2  0  0  0
  4 12  1  0  0  0
  6  8  1  0  0  0
  6 13  1  0  0  0
  6 19  1  0  0  0
  7 14  1  0  0  0
  7 15  1  0  0  0
  7 20  1  0  0  0
  8 11  1  0  0  0
  8 16  1  0  0  0
 11 17  1  0  0  0
 13 14  2  0  0  0
 13 21  1  0  0  0
 14 22  1  0  0  0
M  END
>  <Name>
tox-333

>  <substance>
Heptachlor

>  <CASRN>
76-44-8

>  <from_NCI>
1

>  <RBA>
0.000000

>  <method>
RUC

>  <chemical_class>
Organochlorine; Chlorinated cyclodiene

>  <set>
0

$$$$
tox-334
  Cerius2 12190218263D 1   1.00000                          
 Structure written by MMmdl.
 23 24  0  0  0  0  0  0  0  0999 V2000
   -0.7735   -0.0284   -0.4147 C   0  0  0  0  0  0
   -1.5120   -0.8730   -1.2768 C   0  0  0  0  0  0
   -2.9191   -0.8777   -1.2355 C   0  0  0  0  0  0
   -3.5914   -0.0433   -0.3330 C   0  0  0  0  0  0
   -2.8663    0.7886    0.5231 C   0  0  0  0  0  0
   -1.4731    0.7963    0.4854 C   0  0  0  0  0  0
    0.7022    0.0220   -0.4178 C   0  0  0  0  0  0
    1.4389    0.8720   -1.2715 C   0  0  0  0  0  0
    2.8489    0.8756   -1.2372 C   0  0  0  0  0  0
    3.5331    0.0297   -0.3448 C   0  0  0  0  0  0
    2.8021   -0.8101    0.5058 C   0  0  0  0  0  0
    1.4053   -0.8104    0.4684 C   0  0  0  0  0  0
   -4.9664   -0.0481   -0.2931 O   0  0  0  0  0  0
    3.5610   -1.8821    1.6358 Cl  0  0  0  0  0  0
   -3.6826    1.8206    1.6404 Cl  0  0  0  0  0  0
    5.2734    0.0187   -0.2877 Cl  0  0  0  0  0  0
    3.7438    1.9288   -2.3014 Cl  0  0  0  0  0  0
   -3.8499   -1.9032   -2.2865 Cl  0  0  0  0  0  0
    0.5771    1.9199   -2.3679 Cl  0  0  0  0  0  0
   -0.6596   -1.9101   -2.3882 Cl  0  0  0  0  0  0
   -0.9226    1.4519    1.1589 H   0  0  0  0  0  0
    0.8531   -1.4714    1.1363 H   0  0  0  0  0  0
   -5.2397    0.5958    0.3961 H   0  0  0  0  0  0
  1  2  2  0  0  0
  1  6  1  0  0  0
  1  7  1  0  0  0
  2  3  1  0  0  0
  2 20  1  0  0  0
  3  4  2  0  0  0
  3 18  1  0  0  0
  4  5  1  0  0  0
  4 13  1  0  0  0
  5  6  2  0  0  0
  5 15  1  0  0  0
  6 21  1  0  0  0
  7  8  2  0  0  0
  7 12  1  0  0  0
  8  9  1  0  0  0
  8 19  1  0  0  0
  9 10  2  0  0  0
  9 17  1  0  0  0
 10 11  1  0  0  0
 10 16  1  0  0  0
 11 12  2  0  0  0
 11 14  1  0  0  0
 12 22  1  0  0  0
 13 23  1  0  0  0
M  END
>  <Name>
tox-334

>  <substance>
2,2',3,3',4',5,5'-Heptachloro-4- biphenylol

>  <CASRN>
158076-64-3

>  <from_NCI>
0

>  <RBA>
0.050000

>  <method>
GST-hERadef,hERa

>  <chemical_class>
Polychlorinated biphenyl

>  <set>
0

$$$$
tox-335
  Cerius2 12190218263D 1   1.00000                          
 Structure written by MMmdl.
 22 23  0  0  0  0  0  0  0  0999 V2000
    0.4301   -0.0231   -0.0263 C   0  0  0  0  0  0
   -1.0526   -0.0499   -0.0236 C   0  0  0  0  0  0
    1.1410    0.9193    0.7549 C   0  0  0  0  0  0
    1.1718   -0.9413   -0.8078 C   0  0  0  0  0  0
   -1.7999   -0.8291    0.8892 C   0  0  0  0  0  0
   -1.7471    0.7315   -0.9677 C   0  0  0  0  0  0
    2.5494    0.9434    0.7578 C   0  0  0  0  0  0
    0.2466    2.0621    1.7302 Cl  0  0  0  0  0  0
    2.5803   -0.9210   -0.8081 C   0  0  0  0  0  0
    0.3158   -2.1164   -1.7791 Cl  0  0  0  0  0  0
   -3.2036   -0.8134    0.8427 C   0  0  0  0  0  0
   -0.9695   -1.8051    2.0674 Cl  0  0  0  0  0  0
   -3.1410    0.7415   -1.0073 C   0  0  0  0  0  0
    3.2679    0.0223   -0.0244 C   0  0  0  0  0  0
    3.4001    2.1148    1.7324 Cl  0  0  0  0  0  0
    3.4693   -2.0664   -1.7793 Cl  0  0  0  0  0  0
   -3.8678   -0.0294   -0.1039 C   0  0  0  0  0  0
   -4.1796   -1.7428    1.9298 Cl  0  0  0  0  0  0
    5.0136    0.0496   -0.0225 Cl  0  0  0  0  0  0
   -1.1987    1.3428   -1.6846 H   0  0  0  0  0  0
   -3.6602    1.3518   -1.7442 H   0  0  0  0  0  0
   -4.9550   -0.0133   -0.1447 H   0  0  0  0  0  0
  1  2  1  0  0  0
  1  3  2  0  0  0
  1  4  1  0  0  0
  2  5  2  0  0  0
  2  6  1  0  0  0
  3  7  1  0  0  0
  3  8  1  0  0  0
  4  9  2  0  0  0
  4 10  1  0  0  0
  5 11  1  0  0  0
  5 12  1  0  0  0
  6 13  2  0  0  0
  6 20  1  0  0  0
  7 14  2  0  0  0
  7 15  1  0  0  0
  9 14  1  0  0  0
  9 16  1  0  0  0
 11 17  2  0  0  0
 11 18  1  0  0  0
 13 17  1  0  0  0
 13 21  1  0  0  0
 14 19  1  0  0  0
 17 22  1  0  0  0
M  END
>  <Name>
tox-335

>  <substance>
2,2',3,3',4,5,6-Heptachlorobiphenyl

>  <CASRN>
68194-16-1

>  <from_NCI>
1

>  <RBA>
0.000000

>  <method>
GST-hERadef

>  <chemical_class>
Polychlorinated biphenyl

>  <set>
0

$$$$
tox-336
  Cerius2 12190218263D 1   1.00000                          
 Structure written by MMmdl.
 22 23  0  0  0  0  0  0  0  0999 V2000
    1.0415   -0.0232   -0.0266 C   0  0  0  0  0  0
   -0.4404   -0.0506   -0.0204 C   0  0  0  0  0  0
    1.7545    0.9150    0.7609 C   0  0  0  0  0  0
    1.7820   -0.9360   -0.8186 C   0  0  0  0  0  0
   -1.1876   -0.8365    0.8884 C   0  0  0  0  0  0
   -1.1341    0.7365   -0.9559 C   0  0  0  0  0  0
    3.1587    0.9313    0.7527 C   0  0  0  0  0  0
    0.8810    2.0545    1.7504 Cl  0  0  0  0  0  0
    3.1860   -0.9063   -0.8154 C   0  0  0  0  0  0
    0.9429   -2.1071   -1.8010 Cl  0  0  0  0  0  0
   -2.5961   -0.8285    0.8546 C   0  0  0  0  0  0
   -0.3379   -1.8175    2.0537 Cl  0  0  0  0  0  0
   -2.5279    0.7457   -0.9909 C   0  0  0  0  0  0
    3.8683    0.0239   -0.0325 C   0  0  0  0  0  0
    4.0821    2.0529    1.6962 Cl  0  0  0  0  0  0
    4.1424   -1.9982   -1.7608 Cl  0  0  0  0  0  0
   -3.2580   -0.0321   -0.0913 C   0  0  0  0  0  0
   -3.5146   -1.7954    1.9728 Cl  0  0  0  0  0  0
   -4.9849    0.0393   -0.2051 Cl  0  0  0  0  0  0
   -0.5878    1.3532   -1.6697 H   0  0  0  0  0  0
   -3.0364    1.3655   -1.7269 H   0  0  0  0  0  0
    4.9558    0.0415   -0.0342 H   0  0  0  0  0  0
  1  2  1  0  0  0
  1  3  2  0  0  0
  1  4  1  0  0  0
  2  5  2  0  0  0
  2  6  1  0  0  0
  3  7  1  0  0  0
  3  8  1  0  0  0
  4  9  2  0  0  0
  4 10  1  0  0  0
  5 11  1  0  0  0
  5 12  1  0  0  0
  6 13  2  0  0  0
  6 20  1  0  0  0
  7 14  2  0  0  0
  7 15  1  0  0  0
  9 14  1  0  0  0
  9 16  1  0  0  0
 11 17  2  0  0  0
 11 18  1  0  0  0
 13 17  1  0  0  0
 13 21  1  0  0  0
 14 22  1  0  0  0
 17 19  1  0  0  0
M  END
>  <Name>
tox-336

>  <substance>
2,2',3,3',4',5,6-Heptachlorobiphenyl

>  <CASRN>
52663-70-4

>  <from_NCI>
1

>  <RBA>
0.000000

>  <method>
GST-hERadef

>  <chemical_class>
Polychlorinated biphenyl

>  <set>
0

$$$$
tox-337
  Cerius2 12190218263D 1   1.00000                          
 Structure written by MMmdl.
 22 23  0  0  0  0  0  0  0  0999 V2000
    0.3841    0.3624   -0.0094 C   0  0  0  0  0  0
   -0.8992   -0.3873   -0.0232 C   0  0  0  0  0  0
    0.5539    1.4967    0.8233 C   0  0  0  0  0  0
    1.4682   -0.0379   -0.8301 C   0  0  0  0  0  0
   -1.1277   -1.4733    0.8578 C   0  0  0  0  0  0
   -1.9316   -0.0352   -0.9201 C   0  0  0  0  0  0
    1.7688    2.2005    0.8288 C   0  0  0  0  0  0
   -0.7559    2.0193    1.8483 Cl  0  0  0  0  0  0
    2.6764    0.6771   -0.8125 C   0  0  0  0  0  0
    1.2984   -1.4289   -1.8672 Cl  0  0  0  0  0  0
   -2.3478   -2.1707    0.8306 C   0  0  0  0  0  0
    0.1176   -1.9449    1.9832 Cl  0  0  0  0  0  0
   -3.1413   -0.7334   -0.9407 C   0  0  0  0  0  0
   -1.7543    1.2769   -2.0393 Cl  0  0  0  0  0  0
    2.8230    1.7904    0.0138 C   0  0  0  0  0  0
    2.0331    3.5926    1.8249 Cl  0  0  0  0  0  0
    4.0339    0.2343   -1.7929 Cl  0  0  0  0  0  0
   -3.3486   -1.7984   -0.0675 C   0  0  0  0  0  0
   -2.6822   -3.5043    1.8825 Cl  0  0  0  0  0  0
   -3.9305   -0.4537   -1.6360 H   0  0  0  0  0  0
    3.7616    2.3400    0.0227 H   0  0  0  0  0  0
   -4.2960   -2.3328   -0.0950 H   0  0  0  0  0  0
  1  2  1  0  0  0
  1  3  2  0  0  0
  1  4  1  0  0  0
  2  5  2  0  0  0
  2  6  1  0  0  0
  3  7  1  0  0  0
  3  8  1  0  0  0
  4  9  2  0  0  0
  4 10  1  0  0  0
  5 11  1  0  0  0
  5 12  1  0  0  0
  6 13  2  0  0  0
  6 14  1  0  0  0
  7 15  2  0  0  0
  7 16  1  0  0  0
  9 15  1  0  0  0
  9 17  1  0  0  0
 11 18  2  0  0  0
 11 19  1  0  0  0
 13 18  1  0  0  0
 13 20  1  0  0  0
 15 21  1  0  0  0
 18 22  1  0  0  0
M  END
>  <Name>
tox-337

>  <substance>
2,2',3,3',5,5',6-Heptachlorobiphenyl

>  <CASRN>
52663-64-6

>  <from_NCI>
1

>  <RBA>
0.000000

>  <method>
GST-hERadef

>  <chemical_class>
Polychlorinated biphenyl

>  <set>
0

$$$$
tox-338
  Cerius2 12190218263D 1   1.00000                          
 Structure written by MMmdl.
 23 24  0  0  0  0  0  0  0  0999 V2000
   -0.7171   -0.0581    0.3928 C   0  0  0  0  0  0
   -1.4468   -0.9362   -0.4351 C   0  0  0  0  0  0
   -2.8494   -0.9569   -0.3840 C   0  0  0  0  0  0
   -3.5420   -0.1075    0.4904 C   0  0  0  0  0  0
   -2.8267    0.7634    1.3173 C   0  0  0  0  0  0
   -1.4287    0.7842    1.2681 C   0  0  0  0  0  0
    0.7569    0.0094    0.3807 C   0  0  0  0  0  0
    1.4792    0.8493   -0.4949 C   0  0  0  0  0  0
    2.8893    0.8698   -0.4682 C   0  0  0  0  0  0
    3.5878    0.0510    0.4381 C   0  0  0  0  0  0
    2.8711   -0.7789    1.3102 C   0  0  0  0  0  0
    1.4742   -0.7959    1.2804 C   0  0  0  0  0  0
   -3.5392   -1.8232   -1.2033 O   0  0  0  0  0  0
    3.6482   -1.8180    2.4584 Cl  0  0  0  0  0  0
   -3.6065    1.8411    2.4234 Cl  0  0  0  0  0  0
    5.3285    0.0612    0.4860 Cl  0  0  0  0  0  0
   -5.2749   -0.1715    0.5141 Cl  0  0  0  0  0  0
    3.7665    1.9106   -1.5592 Cl  0  0  0  0  0  0
    0.6000    1.8640   -1.6085 Cl  0  0  0  0  0  0
   -0.6178   -2.0054   -1.5268 Cl  0  0  0  0  0  0
   -0.8821    1.4679    1.9172 H   0  0  0  0  0  0
    0.9331   -1.4489    1.9649 H   0  0  0  0  0  0
   -4.4963   -1.6934   -1.0257 H   0  0  0  0  0  0
  1  2  2  0  0  0
  1  6  1  0  0  0
  1  7  1  0  0  0
  2  3  1  0  0  0
  2 20  1  0  0  0
  3  4  2  0  0  0
  3 13  1  0  0  0
  4  5  1  0  0  0
  4 17  1  0  0  0
  5  6  2  0  0  0
  5 15  1  0  0  0
  6 21  1  0  0  0
  7  8  2  0  0  0
  7 12  1  0  0  0
  8  9  1  0  0  0
  8 19  1  0  0  0
  9 10  2  0  0  0
  9 18  1  0  0  0
 10 11  1  0  0  0
 10 16  1  0  0  0
 11 12  2  0  0  0
 11 14  1  0  0  0
 12 22  1  0  0  0
 13 23  1  0  0  0
M  END
>  <Name>
tox-338

>  <substance>
2,2',3',4,4',5,5'-Heptachloro-3- biphenylol

>  <CASRN>
158076-69-8

>  <from_NCI>
0

>  <RBA>
0.060000

>  <method>
GST-hERadef,hERa,hERa

>  <chemical_class>
Polychlorinated biphenyl

>  <set>
0

$$$$
tox-339
  Cerius2 12190218263D 1   1.00000                          
 Structure written by MMmdl.
 22 23  0  0  0  0  0  0  0  0999 V2000
   -0.7459   -0.0077    0.0153 C   0  0  0  0  0  0
    0.7324    0.0131   -0.0263 C   0  0  0  0  0  0
   -1.4672   -0.8220    0.9098 C   0  0  0  0  0  0
   -1.4710    0.8121   -0.8702 C   0  0  0  0  0  0
    1.4820    0.9091    0.7764 C   0  0  0  0  0  0
    1.4415   -0.8671   -0.8689 C   0  0  0  0  0  0
   -2.8649   -0.8154    0.9186 C   0  0  0  0  0  0
   -0.6607   -1.8629    2.0343 Cl  0  0  0  0  0  0
   -2.8701    0.8202   -0.8633 C   0  0  0  0  0  0
    2.8911    0.9169    0.7358 C   0  0  0  0  0  0
    0.6347    2.0165    1.8296 Cl  0  0  0  0  0  0
    2.8364   -0.8613   -0.9120 C   0  0  0  0  0  0
    0.6235   -2.0030   -1.8934 Cl  0  0  0  0  0  0
   -3.5669    0.0047    0.0333 C   0  0  0  0  0  0
   -3.6756    1.8591   -1.9864 Cl  0  0  0  0  0  0
    3.5584    0.0250   -0.1139 C   0  0  0  0  0  0
    3.8028    2.0192    1.7272 Cl  0  0  0  0  0  0
   -5.2947   -0.0342    0.0952 Cl  0  0  0  0  0  0
    5.2863   -0.0361   -0.2291 Cl  0  0  0  0  0  0
   -0.9364    1.4505   -1.5725 H   0  0  0  0  0  0
   -3.4061   -1.4502    1.6162 H   0  0  0  0  0  0
    3.3613   -1.5507   -1.5697 H   0  0  0  0  0  0
  1  2  1  0  0  0
  1  3  2  0  0  0
  1  4  1  0  0  0
  2  5  2  0  0  0
  2  6  1  0  0  0
  3  7  1  0  0  0
  3  8  1  0  0  0
  4  9  2  0  0  0
  4 20  1  0  0  0
  5 10  1  0  0  0
  5 11  1  0  0  0
  6 12  2  0  0  0
  6 13  1  0  0  0
  7 14  2  0  0  0
  7 21  1  0  0  0
  9 14  1  0  0  0
  9 15  1  0  0  0
 10 16  2  0  0  0
 10 17  1  0  0  0
 12 16  1  0  0  0
 12 22  1  0  0  0
 14 18  1  0  0  0
 16 19  1  0  0  0
M  END
>  <Name>
tox-339

>  <substance>
2,2',3,4,4',5',6-Heptachlorobiphenyl

>  <CASRN>
52663-69-1

>  <from_NCI>
1

>  <RBA>
0.000000

>  <method>
GST-hERadef

>  <chemical_class>
Polychlorinated biphenyl

>  <set>
0

$$$$
tox-340
  Cerius2 12190218263D 1   1.00000                          
 Structure written by MMmdl.
 22 23  0  0  0  0  0  0  0  0999 V2000
    0.6306   -0.0843   -0.0069 C   0  0  0  0  0  0
    0.8184   -1.2328    0.8024 C   0  0  0  0  0  0
   -0.6422    0.6764    0.0141 C   0  0  0  0  0  0
    1.6958    0.3176   -0.8385 C   0  0  0  0  0  0
    2.0317   -1.9498    0.7760 C   0  0  0  0  0  0
   -1.7009    0.3582   -0.8632 C   0  0  0  0  0  0
   -0.8410    1.7481    0.9107 C   0  0  0  0  0  0
    3.0662   -1.5180   -0.0644 C   0  0  0  0  0  0
    2.8980   -0.3902   -0.8668 C   0  0  0  0  0  0
   -2.0396    2.4668    0.9302 C   0  0  0  0  0  0
   -2.9004    1.0756   -0.8454 C   0  0  0  0  0  0
   -3.0616    2.1255    0.0516 C   0  0  0  0  0  0
   -0.4820   -1.7575    1.8444 Cl  0  0  0  0  0  0
    2.2530   -3.3587    1.7732 Cl  0  0  0  0  0  0
    1.5711    1.7078   -1.8679 Cl  0  0  0  0  0  0
    0.3900    2.2276    2.0343 Cl  0  0  0  0  0  0
   -1.5691   -0.9388   -2.0069 Cl  0  0  0  0  0  0
    4.5903   -2.3365   -0.1619 Cl  0  0  0  0  0  0
   -4.5387    3.0101    0.0745 Cl  0  0  0  0  0  0
    3.7058   -0.0609   -1.5168 H   0  0  0  0  0  0
   -2.1736    3.2891    1.6287 H   0  0  0  0  0  0
   -3.7044    0.8149   -1.5292 H   0  0  0  0  0  0
  1  2  2  0  0  0
  1  3  1  0  0  0
  1  4  1  0  0  0
  2  5  1  0  0  0
  2 13  1  0  0  0
  3  6  2  0  0  0
  3  7  1  0  0  0
  4  9  2  0  0  0
  4 15  1  0  0  0
  5  8  2  0  0  0
  5 14  1  0  0  0
  6 11  1  0  0  0
  6 17  1  0  0  0
  7 10  2  0  0  0
  7 16  1  0  0  0
  8  9  1  0  0  0
  8 18  1  0  0  0
  9 20  1  0  0  0
 10 12  1  0  0  0
 10 21  1  0  0  0
 11 12  2  0  0  0
 11 22  1  0  0  0
 12 19  1  0  0  0
M  END
>  <Name>
tox-340

>  <substance>
2,2',3,4,4',6,6'-Heptachlorobiphenyl

>  <CASRN>
74472-48-3

>  <from_NCI>
1

>  <RBA>
0.020000

>  <method>
GST-hERadef

>  <chemical_class>
Polychlorinated biphenyl

>  <set>
0

$$$$
tox-341
  Cerius2 12190218263D 1   1.00000                          
 Structure written by MMmdl.
 23 24  0  0  0  0  0  0  0  0999 V2000
    0.7688    0.0047   -0.3257 C   0  0  0  0  0  0
    1.4742    0.9481    0.4642 C   0  0  0  0  0  0
    2.8802    0.9576    0.4911 C   0  0  0  0  0  0
    3.5939    0.0262   -0.2716 C   0  0  0  0  0  0
    2.9190   -0.9134   -1.0606 C   0  0  0  0  0  0
    1.5151   -0.9262   -1.0902 C   0  0  0  0  0  0
   -0.7121   -0.0105   -0.3476 C   0  0  0  0  0  0
   -1.4752   -0.7763    0.5554 C   0  0  0  0  0  0
   -2.8719   -0.7651    0.5044 C   0  0  0  0  0  0
   -3.5314    0.0117   -0.4501 C   0  0  0  0  0  0
   -2.7929    0.7791   -1.3558 C   0  0  0  0  0  0
   -1.3948    0.7663   -1.3029 C   0  0  0  0  0  0
    4.9712    0.0439   -0.2384 O   0  0  0  0  0  0
    0.6784   -2.0989   -2.0751 Cl  0  0  0  0  0  0
   -3.5448    1.7629   -2.5626 Cl  0  0  0  0  0  0
    3.8679   -2.0399   -1.9821 Cl  0  0  0  0  0  0
   -5.2605   -0.0186   -0.4599 Cl  0  0  0  0  0  0
    3.7599    2.1061    1.4558 Cl  0  0  0  0  0  0
   -0.7219   -1.7615    1.7639 Cl  0  0  0  0  0  0
    0.5796    2.1089    1.4140 Cl  0  0  0  0  0  0
   -3.4455   -1.3622    1.2092 H   0  0  0  0  0  0
   -0.8279    1.3675   -2.0127 H   0  0  0  0  0  0
    5.2890   -0.6734   -0.8294 H   0  0  0  0  0  0
  1  2  2  0  0  0
  1  6  1  0  0  0
  1  7  1  0  0  0
  2  3  1  0  0  0
  2 20  1  0  0  0
  3  4  2  0  0  0
  3 18  1  0  0  0
  4  5  1  0  0  0
  4 13  1  0  0  0
  5  6  2  0  0  0
  5 16  1  0  0  0
  6 14  1  0  0  0
  7  8  2  0  0  0
  7 12  1  0  0  0
  8  9  1  0  0  0
  8 19  1  0  0  0
  9 10  2  0  0  0
  9 21  1  0  0  0
 10 11  1  0  0  0
 10 17  1  0  0  0
 11 12  2  0  0  0
 11 15  1  0  0  0
 12 22  1  0  0  0
 13 23  1  0  0  0
M  END
>  <Name>
tox-341

>  <substance>
2,2',3,4',5,5',6-Heptachloro-4- biphenylol

>  <CASRN>
158076-68-7

>  <from_NCI>
0

>  <RBA>
0.100000

>  <method>
hERa

>  <chemical_class>
Polychlorinated biphenyl

>  <set>
0

$$$$
tox-342
  Cerius2 12190218263D 1   1.00000                          
 Structure written by MMmdl.
 22 23  0  0  0  0  0  0  0  0999 V2000
    0.6402    0.0491   -0.0144 C   0  0  0  0  0  0
   -0.6385   -0.6964    0.0192 C   0  0  0  0  0  0
    0.8193    1.2204    0.7630 C   0  0  0  0  0  0
    1.7182   -0.3931   -0.8211 C   0  0  0  0  0  0
   -0.8854   -1.7353    0.9377 C   0  0  0  0  0  0
   -1.6542   -0.3632   -0.8970 C   0  0  0  0  0  0
    2.0382    1.9171    0.7317 C   0  0  0  0  0  0
   -0.4836    1.7995    1.7669 Cl  0  0  0  0  0  0
    2.9307    0.3152   -0.8411 C   0  0  0  0  0  0
    1.5377   -1.8283   -1.7948 Cl  0  0  0  0  0  0
   -2.1057   -2.4168    0.9393 C   0  0  0  0  0  0
    0.3049   -2.2134    2.1009 Cl  0  0  0  0  0  0
   -2.8764   -1.0440   -0.8971 C   0  0  0  0  0  0
    3.0871    1.4641   -0.0671 C   0  0  0  0  0  0
    2.3143    3.3520    1.6620 Cl  0  0  0  0  0  0
    4.2819   -0.1794   -1.8055 Cl  0  0  0  0  0  0
   -3.1012   -2.0723    0.0231 C   0  0  0  0  0  0
   -4.0649   -0.5664   -2.0586 Cl  0  0  0  0  0  0
   -4.5879   -2.9541    0.0778 Cl  0  0  0  0  0  0
   -1.4879    0.4365   -1.6176 H   0  0  0  0  0  0
   -2.2797   -3.2164    1.6553 H   0  0  0  0  0  0
    4.0288    2.0081   -0.0867 H   0  0  0  0  0  0
  1  2  1  0  0  0
  1  3  2  0  0  0
  1  4  1  0  0  0
  2  5  2  0  0  0
  2  6  1  0  0  0
  3  7  1  0  0  0
  3  8  1  0  0  0
  4  9  2  0  0  0
  4 10  1  0  0  0
  5 11  1  0  0  0
  5 12  1  0  0  0
  6 13  2  0  0  0
  6 20  1  0  0  0
  7 14  2  0  0  0
  7 15  1  0  0  0
  9 14  1  0  0  0
  9 16  1  0  0  0
 11 17  2  0  0  0
 11 21  1  0  0  0
 13 17  1  0  0  0
 13 18  1  0  0  0
 14 22  1  0  0  0
 17 19  1  0  0  0
M  END
>  <Name>
tox-342

>  <substance>
2,2',3,4',5,5',6-Heptachlorobiphenyl

>  <CASRN>
52663-68-0

>  <from_NCI>
1

>  <RBA>
0.000000

>  <method>
GST-hERadef

>  <chemical_class>
Polychlorinated biphenyl

>  <set>
0

$$$$
tox-343
  Cerius2 12190218263D 1   1.00000                          
 Structure written by MMmdl.
 22 23  0  0  0  0  0  0  0  0999 V2000
    0.3030    2.1950    2.0837 Cl  0  0  0  0  0  0
   -0.8865    1.7268    0.9119 C   0  0  0  0  0  0
   -2.0959    2.4274    0.9127 C   0  0  0  0  0  0
   -3.0855    2.0941   -0.0053 C   0  0  0  0  0  0
   -2.8813    1.0699   -0.9232 C   0  0  0  0  0  0
   -1.6711    0.3706   -0.9223 C   0  0  0  0  0  0
   -0.6444    0.6816   -0.0052 C   0  0  0  0  0  0
    0.6404   -0.0619   -0.0052 C   0  0  0  0  0  0
    0.8055   -1.2271    0.7845 C   0  0  0  0  0  0
    2.0241   -1.9247    0.7786 C   0  0  0  0  0  0
    3.0867   -1.4777   -0.0054 C   0  0  0  0  0  0
    2.9448   -0.3335   -0.7893 C   0  0  0  0  0  0
    1.7329    0.3756   -0.7949 C   0  0  0  0  0  0
    1.5694    1.8047   -1.7800 Cl  0  0  0  0  0  0
    4.3125    0.1540   -1.7335 Cl  0  0  0  0  0  0
    2.2828   -3.3536    1.7226 Cl  0  0  0  0  0  0
   -0.5150   -1.7973    1.7699 Cl  0  0  0  0  0  0
   -1.4841   -0.8940   -2.0942 Cl  0  0  0  0  0  0
   -4.5759    2.9564   -0.0055 Cl  0  0  0  0  0  0
   -2.2635    3.2296    1.6271 H   0  0  0  0  0  0
   -3.6602    0.8153   -1.6377 H   0  0  0  0  0  0
    4.0281   -2.0225   -0.0055 H   0  0  0  0  0  0
  1  2  1  0  0  0
  2  3  2  0  0  0
  2  7  1  0  0  0
  3  4  1  0  0  0
  3 20  1  0  0  0
  4  5  2  0  0  0
  4 19  1  0  0  0
  5  6  1  0  0  0
  5 21  1  0  0  0
  6  7  2  0  0  0
  6 18  1  0  0  0
  7  8  1  0  0  0
  8  9  2  0  0  0
  8 13  1  0  0  0
  9 10  1  0  0  0
  9 17  1  0  0  0
 10 11  2  0  0  0
 10 16  1  0  0  0
 11 12  1  0  0  0
 11 22  1  0  0  0
 12 13  2  0  0  0
 12 15  1  0  0  0
 13 14  1  0  0  0
M  END
>  <Name>
tox-343

>  <substance>
2,2',3,4',5,6,6'-Heptachlorobiphenyl

>  <CASRN>
74487-85-7

>  <from_NCI>
1

>  <RBA>
0.020000

>  <method>
GST-hERadef

>  <chemical_class>
Polychlorinated biphenyl

>  <set>
0

$$$$
tox-344
  Cerius2 12190218263D 1   1.00000                          
 Structure written by MMmdl.
 22 23  0  0  0  0  0  0  0  0999 V2000
    0.7290   -0.0077    0.0000 C   0  0  0  0  0  0
   -0.7485   -0.0147    0.0164 C   0  0  0  0  0  0
    1.4429    0.9576   -0.7499 C   0  0  0  0  0  0
    1.4686   -0.9657    0.7342 C   0  0  0  0  0  0
   -1.4730   -0.7535   -0.9338 C   0  0  0  0  0  0
   -1.4572    0.7173    0.9819 C   0  0  0  0  0  0
    2.8515    0.9675   -0.7656 C   0  0  0  0  0  0
    0.5529    2.1506   -1.6683 Cl  0  0  0  0  0  0
    2.8773   -0.9596    0.7217 C   0  0  0  0  0  0
    0.6107   -2.1716    1.6660 Cl  0  0  0  0  0  0
   -2.8725   -0.7602   -0.9193 C   0  0  0  0  0  0
   -2.8547    0.7118    0.9981 C   0  0  0  0  0  0
    3.5677    0.0081   -0.0288 C   0  0  0  0  0  0
    3.7059    2.1698   -1.6991 Cl  0  0  0  0  0  0
    3.7637   -2.1526    1.6370 Cl  0  0  0  0  0  0
   -3.5650   -0.0258    0.0488 C   0  0  0  0  0  0
   -3.6858   -1.6961   -2.1253 Cl  0  0  0  0  0  0
    5.3135    0.0182   -0.0460 Cl  0  0  0  0  0  0
   -5.2918    0.0103    0.1242 Cl  0  0  0  0  0  0
   -0.9409   -1.3276   -1.6907 H   0  0  0  0  0  0
   -0.9239    1.3002    1.7324 H   0  0  0  0  0  0
   -3.3797    1.2878    1.7571 H   0  0  0  0  0  0
  1  2  1  0  0  0
  1  3  2  0  0  0
  1  4  1  0  0  0
  2  5  2  0  0  0
  2  6  1  0  0  0
  3  7  1  0  0  0
  3  8  1  0  0  0
  4  9  2  0  0  0
  4 10  1  0  0  0
  5 11  1  0  0  0
  5 20  1  0  0  0
  6 12  2  0  0  0
  6 21  1  0  0  0
  7 13  2  0  0  0
  7 14  1  0  0  0
  9 13  1  0  0  0
  9 15  1  0  0  0
 11 16  2  0  0  0
 11 17  1  0  0  0
 12 16  1  0  0  0
 12 22  1  0  0  0
 13 18  1  0  0  0
 16 19  1  0  0  0
M  END
>  <Name>
tox-344

>  <substance>
2,3,3',4,4',5,6-Heptachlorobiphenyl

>  <CASRN>
41411-64-7

>  <from_NCI>
1

>  <RBA>
0.000000

>  <method>
GST-hERadef

>  <chemical_class>
Polychlorinated biphenyl

>  <set>
0

$$$$
tox-345
  Cerius2 12190218263D 1   1.00000                          
 Structure written by MMmdl.
 22 23  0  0  0  0  0  0  0  0999 V2000
    0.4213    0.0000   -0.0097 C   0  0  0  0  0  0
   -1.0563   -0.0001   -0.0104 C   0  0  0  0  0  0
    1.1484    0.9299   -0.7908 C   0  0  0  0  0  0
    1.1477   -0.9300    0.7721 C   0  0  0  0  0  0
   -1.7724   -0.7773   -0.9354 C   0  0  0  0  0  0
   -1.7733    0.7771    0.9141 C   0  0  0  0  0  0
    2.5571    0.9321   -0.7917 C   0  0  0  0  0  0
    0.2743    2.0893   -1.7657 Cl  0  0  0  0  0  0
    2.5564   -0.9318    0.7745 C   0  0  0  0  0  0
    0.2727   -2.0895    1.7459 Cl  0  0  0  0  0  0
   -3.1682   -0.7723   -0.9301 C   0  0  0  0  0  0
   -3.1691    0.7722    0.9076 C   0  0  0  0  0  0
    3.2601    0.0002   -0.0082 C   0  0  0  0  0  0
    3.4278    2.0905   -1.7646 Cl  0  0  0  0  0  0
    3.4263   -2.0902    1.7483 Cl  0  0  0  0  0  0
   -3.8731   -0.0001   -0.0116 C   0  0  0  0  0  0
   -4.0268   -1.7328   -2.0733 Cl  0  0  0  0  0  0
   -4.0286    1.7327    2.0499 Cl  0  0  0  0  0  0
    5.0061    0.0004   -0.0072 Cl  0  0  0  0  0  0
   -1.2387   -1.3878   -1.6617 H   0  0  0  0  0  0
   -1.2402    1.3877    1.6409 H   0  0  0  0  0  0
   -4.9594   -0.0001   -0.0121 H   0  0  0  0  0  0
  1  2  1  0  0  0
  1  3  2  0  0  0
  1  4  1  0  0  0
  2  5  2  0  0  0
  2  6  1  0  0  0
  3  7  1  0  0  0
  3  8  1  0  0  0
  4  9  2  0  0  0
  4 10  1  0  0  0
  5 11  1  0  0  0
  5 20  1  0  0  0
  6 12  2  0  0  0
  6 21  1  0  0  0
  7 13  2  0  0  0
  7 14  1  0  0  0
  9 13  1  0  0  0
  9 15  1  0  0  0
 11 16  2  0  0  0
 11 17  1  0  0  0
 12 16  1  0  0  0
 12 18  1  0  0  0
 13 19  1  0  0  0
 16 22  1  0  0  0
M  END
>  <Name>
tox-345

>  <substance>
2,3,3',4',5,5',6-Heptachlorobiphenyl

>  <CASRN>
69782-91-8

>  <from_NCI>
1

>  <RBA>
0.000000

>  <method>
GST-hERadef

>  <chemical_class>
Polychlorinated biphenyl

>  <set>
0

$$$$
tox-346
  Cerius2 12190218263D 1   1.00000                          
 Structure written by MMmdl.
 35 35  0  0  0  0  0  0  0  0999 V2000
   -3.0607    0.0931    1.9460 C   0  0  0  0  0  0
   -2.0481    0.9824    2.2761 C   0  0  0  0  0  0
   -4.3719    0.5578    1.9530 C   0  0  0  0  0  0
   -2.9150   -1.2169    1.5928 O   0  0  0  0  0  0
   -2.3568    2.3140    2.6163 C   0  0  0  0  0  0
   -4.6611    1.8899    2.2957 C   0  0  0  0  0  0
   -1.6192   -1.8181    1.6993 C   0  0  0  0  0  0
   -3.6689    2.8240    2.6429 C   0  0  0  0  0  0
   -0.8433   -1.6571    0.3934 C   0  0  0  0  0  0
   -3.9342    4.0281    2.9528 O   0  0  0  0  0  0
    0.5241   -2.3345    0.4660 C   0  0  0  0  0  0
    1.2936   -2.1768   -0.8463 C   0  0  0  0  0  0
    2.6626   -2.8547   -0.7737 C   0  0  0  0  0  0
    3.4307   -2.6972   -2.0855 C   0  0  0  0  0  0
    4.7925   -3.3694   -2.0177 C   0  0  0  0  0  0
   -1.0006    0.6949    2.2764 H   0  0  0  0  0  0
   -5.1906   -0.1118    1.6939 H   0  0  0  0  0  0
   -1.5191    2.9714    2.8679 H   0  0  0  0  0  0
   -5.7118    2.1939    2.2855 H   0  0  0  0  0  0
   -1.7939   -2.8861    1.8766 H   0  0  0  0  0  0
   -1.0642   -1.4582    2.5732 H   0  0  0  0  0  0
   -0.7221   -0.5941    0.1553 H   0  0  0  0  0  0
   -1.4330   -2.0806   -0.4293 H   0  0  0  0  0  0
    0.3949   -3.4003    0.6902 H   0  0  0  0  0  0
    1.1056   -1.8989    1.2876 H   0  0  0  0  0  0
    1.4230   -1.1109   -1.0704 H   0  0  0  0  0  0
    0.7114   -2.6116   -1.6680 H   0  0  0  0  0  0
    2.5336   -3.9205   -0.5490 H   0  0  0  0  0  0
    3.2450   -2.4197    0.0477 H   0  0  0  0  0  0
    3.5658   -1.6333   -2.3127 H   0  0  0  0  0  0
    2.8546   -3.1343   -2.9093 H   0  0  0  0  0  0
    5.3249   -3.2436   -2.9656 H   0  0  0  0  0  0
    4.6912   -4.4422   -1.8247 H   0  0  0  0  0  0
    5.4062   -2.9334   -1.2229 H   0  0  0  0  0  0
   -4.7742    4.1522    2.9138 H   0  0  0  0  0  0
  1  2  2  0  0  0
  1  3  1  0  0  0
  1  4  1  0  0  0
  2  5  1  0  0  0
  2 16  1  0  0  0
  3  6  2  0  0  0
  3 17  1  0  0  0
  4  7  1  0  0  0
  5  8  2  0  0  0
  5 18  1  0  0  0
  6  8  1  0  0  0
  6 19  1  0  0  0
  7  9  1  0  0  0
  7 20  1  0  0  0
  7 21  1  0  0  0
  8 10  1  0  0  0
  9 11  1  0  0  0
  9 22  1  0  0  0
  9 23  1  0  0  0
 10 35  1  0  0  0
 11 12  1  0  0  0
 11 24  1  0  0  0
 11 25  1  0  0  0
 12 13  1  0  0  0
 12 26  1  0  0  0
 12 27  1  0  0  0
 13 14  1  0  0  0
 13 28  1  0  0  0
 13 29  1  0  0  0
 14 15  1  0  0  0
 14 30  1  0  0  0
 14 31  1  0  0  0
 15 32  1  0  0  0
 15 33  1  0  0  0
 15 34  1  0  0  0
M  END
>  <Name>
tox-346

>  <substance>
4-(Heptyloxy)phenol

>  <CASRN>
13037-86-0

>  <from_NCI>
1

>  <RBA>
0.001000

>  <method>
RUC

>  <chemical_class>
Alkoxyphenol

>  <set>
2

$$$$
tox-347
  Cerius2 12190218263D 1   1.00000                          
 Structure written by MMmdl.
 22 21  0  0  0  0  0  0  0  0999 V2000
   -0.0177    0.4768    0.0055 C   0  0  0  0  0  0
   -1.3367   -0.2964    0.0025 C   0  0  0  0  0  0
    1.1830   -0.4705   -0.0022 C   0  0  0  0  0  0
   -2.5343    0.6476    0.0099 C   0  0  0  0  0  0
    2.5011    0.3030    0.0003 C   0  0  0  0  0  0
   -3.8196   -0.1378    0.0122 C   0  0  0  0  0  0
    3.6972   -0.6351   -0.0076 C   0  0  0  0  0  0
   -4.7279    0.0530    0.8236 O   0  0  0  0  0  0
    0.0283    1.1210    0.8921 H   0  0  0  0  0  0
    0.0255    1.1322   -0.8729 H   0  0  0  0  0  0
   -1.3834   -0.9561    0.8781 H   0  0  0  0  0  0
   -1.3834   -0.9462   -0.8804 H   0  0  0  0  0  0
    1.1368   -1.1151   -0.8885 H   0  0  0  0  0  0
    1.1398   -1.1257    0.8764 H   0  0  0  0  0  0
   -2.5323    1.2828   -0.8820 H   0  0  0  0  0  0
   -2.5138    1.2933    0.8943 H   0  0  0  0  0  0
    2.5541    0.9459    0.8866 H   0  0  0  0  0  0
    2.5510    0.9568   -0.8783 H   0  0  0  0  0  0
   -3.9327   -0.8780   -0.7988 H   0  0  0  0  0  0
    4.6291   -0.0612   -0.0053 H   0  0  0  0  0  0
    3.6917   -1.2704   -0.8991 H   0  0  0  0  0  0
    3.6944   -1.2819    0.8756 H   0  0  0  0  0  0
  1  2  1  0  0  0
  1  3  1  0  0  0
  1  9  1  0  0  0
  1 10  1  0  0  0
  2  4  1  0  0  0
  2 11  1  0  0  0
  2 12  1  0  0  0
  3  5  1  0  0  0
  3 13  1  0  0  0
  3 14  1  0  0  0
  4  6  1  0  0  0
  4 15  1  0  0  0
  4 16  1  0  0  0
  5  7  1  0  0  0
  5 17  1  0  0  0
  5 18  1  0  0  0
  6  8  2  0  0  0
  6 19  1  0  0  0
  7 20  1  0  0  0
  7 21  1  0  0  0
  7 22  1  0  0  0
M  END
>  <Name>
tox-347

>  <substance>
Heptanal

>  <CASRN>
111-71-7

>  <from_NCI>
1

>  <RBA>
0.000000

>  <method>
RUC

>  <chemical_class>
Aldehyde

>  <set>
1

$$$$
tox-348
  Cerius2 12190218263D 1   1.00000                          
 Structure written by MMmdl.
 37 37  0  0  0  0  0  0  0  0999 V2000
   -3.0569    1.5927   -2.1557 C   0  0  0  0  0  0
   -2.8953    0.3323   -1.3788 C   0  0  0  0  0  0
   -4.3365    2.1236   -2.3157 C   0  0  0  0  0  0
   -1.9814    2.2671   -2.7329 C   0  0  0  0  0  0
   -1.5858   -0.0120   -1.2906 O   0  0  0  0  0  0
   -3.8264   -0.2927   -0.8901 O   0  0  0  0  0  0
   -4.5267    3.3118   -3.0423 C   0  0  0  0  0  0
   -2.1964    3.4540   -3.4557 C   0  0  0  0  0  0
   -1.3231   -1.2144   -0.5483 C   0  0  0  0  0  0
   -3.4705    4.0257   -3.6408 C   0  0  0  0  0  0
    0.1860   -1.4286   -0.5157 C   0  0  0  0  0  0
   -3.6523    5.0998   -4.2957 O   0  0  0  0  0  0
    0.5607   -2.6852    0.2671 C   0  0  0  0  0  0
    2.0759   -2.8904    0.2978 C   0  0  0  0  0  0
    2.4516   -4.1453    1.0872 C   0  0  0  0  0  0
    3.9659   -4.3496    1.1174 C   0  0  0  0  0  0
    4.3437   -5.5964    1.9007 C   0  0  0  0  0  0
   -5.2028    1.6277   -1.8812 H   0  0  0  0  0  0
   -0.9638    1.8943   -2.6386 H   0  0  0  0  0  0
   -5.5513    3.6840   -3.1359 H   0  0  0  0  0  0
   -1.3181    3.9428   -3.8881 H   0  0  0  0  0  0
   -1.8162   -2.0595   -1.0423 H   0  0  0  0  0  0
   -1.7118   -1.1055    0.4709 H   0  0  0  0  0  0
    0.6675   -0.5476   -0.0729 H   0  0  0  0  0  0
    0.5655   -1.4931   -1.5432 H   0  0  0  0  0  0
    0.0804   -3.5591   -0.1893 H   0  0  0  0  0  0
    0.1801   -2.6056    1.2927 H   0  0  0  0  0  0
    2.5563   -2.0147    0.7512 H   0  0  0  0  0  0
    2.4562   -2.9733   -0.7276 H   0  0  0  0  0  0
    1.9712   -5.0216    0.6350 H   0  0  0  0  0  0
    2.0718   -4.0620    2.1128 H   0  0  0  0  0  0
    4.4501   -3.4780    1.5731 H   0  0  0  0  0  0
    4.3506   -4.4372    0.0946 H   0  0  0  0  0  0
    5.4305   -5.7258    1.9061 H   0  0  0  0  0  0
    3.8975   -6.4907    1.4543 H   0  0  0  0  0  0
    4.0050   -5.5248    2.9392 H   0  0  0  0  0  0
   -2.9052    5.3874   -4.5814 H   0  0  0  0  0  0
  1  2  1  0  0  0
  1  3  2  0  0  0
  1  4  1  0  0  0
  2  5  1  0  0  0
  2  6  2  0  0  0
  3  7  1  0  0  0
  3 18  1  0  0  0
  4  8  2  0  0  0
  4 19  1  0  0  0
  5  9  1  0  0  0
  7 10  2  0  0  0
  7 20  1  0  0  0
  8 10  1  0  0  0
  8 21  1  0  0  0
  9 11  1  0  0  0
  9 22  1  0  0  0
  9 23  1  0  0  0
 10 12  1  0  0  0
 11 13  1  0  0  0
 11 24  1  0  0  0
 11 25  1  0  0  0
 12 37  1  0  0  0
 13 14  1  0  0  0
 13 26  1  0  0  0
 13 27  1  0  0  0
 14 15  1  0  0  0
 14 28  1  0  0  0
 14 29  1  0  0  0
 15 16  1  0  0  0
 15 30  1  0  0  0
 15 31  1  0  0  0
 16 17  1  0  0  0
 16 32  1  0  0  0
 16 33  1  0  0  0
 17 34  1  0  0  0
 17 35  1  0  0  0
 17 36  1  0  0  0
M  END
>  <Name>
tox-348

>  <substance>
Heptyl 4-paraben

>  <CASRN>
1085-12-7

>  <from_NCI>
1

>  <RBA>
0.008000

>  <method>
RUC

>  <chemical_class>
Paraben

>  <set>
0

$$$$
tox-349
  Cerius2 12190218263D 1   1.00000                          
 Structure written by MMmdl.
 36 38  0  0  0  0  0  0  0  0999 V2000
   -2.5090   -1.9970   -0.2079 C   0  0  0  0  0  0
   -1.3663   -2.4145   -1.1111 C   0  0  0  0  0  0
   -2.3362   -0.7790    0.4781 C   0  0  0  0  0  0
   -1.2020   -0.0047    0.4218 O   0  0  0  0  0  0
   -3.7178   -2.7474   -0.0632 C   0  0  0  0  0  0
   -0.0285   -0.7702    0.1162 C   0  0  0  0  0  0
   -0.2050   -1.4605   -1.2206 C   0  0  0  0  0  0
   -3.3571   -0.2496    1.2776 C   0  0  0  0  0  0
    1.1678    0.1675    0.1063 C   0  0  0  0  0  0
   -4.6907   -2.1398    0.7879 C   0  0  0  0  0  0
    1.1561    1.3703   -0.6325 C   0  0  0  0  0  0
    2.2395    2.2810   -0.6902 C   0  0  0  0  0  0
   -4.5765   -0.9048    1.4724 C   0  0  0  0  0  0
   -1.3638   -3.4450   -1.7872 O   0  0  0  0  0  0
    3.3847    1.8950    0.0711 C   0  0  0  0  0  0
    2.3180   -0.1596    0.8219 C   0  0  0  0  0  0
    3.4171    0.6970    0.8067 C   0  0  0  0  0  0
   -3.9853   -3.8690   -0.6153 O   0  0  0  0  0  0
    2.1528    3.3530   -1.3821 O   0  0  0  0  0  0
   -5.5035   -0.4342    2.2050 O   0  0  0  0  0  0
    4.4496    2.7754    0.0269 O   0  0  0  0  0  0
    5.5969    2.4720    0.8195 C   0  0  0  0  0  0
    0.1115   -1.5072    0.9209 H   0  0  0  0  0  0
   -0.4283   -0.7574   -2.0313 H   0  0  0  0  0  0
    0.6959   -2.0273   -1.4816 H   0  0  0  0  0  0
   -3.1745    0.7078    1.7727 H   0  0  0  0  0  0
   -5.6364   -2.6868    0.9231 H   0  0  0  0  0  0
    0.2455    1.6096   -1.1921 H   0  0  0  0  0  0
    2.3735   -1.0813    1.3996 H   0  0  0  0  0  0
    4.2895    0.3978    1.3813 H   0  0  0  0  0  0
    6.3158    3.2862    0.6874 H   0  0  0  0  0  0
    6.0750    1.5477    0.4797 H   0  0  0  0  0  0
    5.3404    2.4241    1.8829 H   0  0  0  0  0  0
   -4.7626   -4.1216   -0.3817 H   0  0  0  0  0  0
    2.8779    3.7918   -1.3168 H   0  0  0  0  0  0
   -6.1649   -0.9681    2.2029 H   0  0  0  0  0  0
  1  2  1  0  0  0
  1  3  2  0  0  0
  1  5  1  0  0  0
  2  7  1  0  0  0
  2 14  2  0  0  0
  3  4  1  0  0  0
  3  8  1  0  0  0
  4  6  1  0  0  0
  5 10  2  0  0  0
  5 18  1  0  0  0
  6  7  1  0  0  0
  6  9  1  0  0  0
  6 23  1  0  0  0
  7 24  1  0  0  0
  7 25  1  0  0  0
  8 13  2  0  0  0
  8 26  1  0  0  0
  9 11  2  0  0  0
  9 16  1  0  0  0
 10 13  1  0  0  0
 10 27  1  0  0  0
 11 12  1  0  0  0
 11 28  1  0  0  0
 12 15  2  0  0  0
 12 19  1  0  0  0
 13 20  1  0  0  0
 15 17  1  0  0  0
 15 21  1  0  0  0
 16 17  2  0  0  0
 16 29  1  0  0  0
 17 30  1  0  0  0
 18 34  1  0  0  0
 19 35  1  0  0  0
 20 36  1  0  0  0
 21 22  1  0  0  0
 22 31  1  0  0  0
 22 32  1  0  0  0
 22 33  1  0  0  0
M  END
>  <Name>
tox-349

>  <substance>
Hesperetin

>  <CASRN>
520-33-2

>  <from_NCI>
1

>  <RBA>
0.000000

>  <method>
RUC

>  <chemical_class>
Flavanone

>  <set>
2

$$$$
tox-350
  Cerius2 12190218263D 1   1.00000                          
 Structure written by MMmdl.
 12 12  0  0  0  0  0  0  0  0999 V2000
   -1.2119   -0.7030   -0.1261 C   0  0  0  0  0  0
    0.0078   -1.4047   -0.1613 C   0  0  0  0  0  0
   -1.2151    0.7043   -0.1502 C   0  0  0  0  0  0
   -2.7210   -1.5785   -0.0528 Cl  0  0  0  0  0  0
    1.2242   -0.6990   -0.2206 C   0  0  0  0  0  0
    0.0118   -3.1506   -0.1314 Cl  0  0  0  0  0  0
    0.0013    1.4099   -0.2095 C   0  0  0  0  0  0
   -2.7282    1.5747   -0.1065 Cl  0  0  0  0  0  0
    1.2210    0.7083   -0.2449 C   0  0  0  0  0  0
    2.7373   -1.5695   -0.2643 Cl  0  0  0  0  0  0
   -0.0027    3.1559   -0.2395 Cl  0  0  0  0  0  0
    2.7300    1.5837   -0.3188 Cl  0  0  0  0  0  0
  1  2  2  0  0  0
  1  3  1  0  0  0
  1  4  1  0  0  0
  2  5  1  0  0  0
  2  6  1  0  0  0
  3  7  2  0  0  0
  3  8  1  0  0  0
  5  9  2  0  0  0
  5 10  1  0  0  0
  7  9  1  0  0  0
  7 11  1  0  0  0
  9 12  1  0  0  0
M  END
>  <Name>
tox-350

>  <substance>
Hexachlorobenzene

>  <CASRN>
118-74-1

>  <from_NCI>
1

>  <RBA>
0.000000

>  <method>
RUC

>  <chemical_class>
Organochlorine

>  <set>
2

$$$$
tox-351
  Cerius2 12190218263D 1   1.00000                          
 Structure written by MMmdl.
 22 23  0  0  0  0  0  0  0  0999 V2000
   -0.7380   -0.1908   -0.0002 C   0  0  0  0  0  0
    0.7380   -0.1908    0.0002 C   0  0  0  0  0  0
   -1.5060    0.6771    0.8108 C   0  0  0  0  0  0
   -1.4100   -1.0949   -0.8401 C   0  0  0  0  0  0
    1.5060    0.6771   -0.8108 C   0  0  0  0  0  0
    1.4100   -1.0949    0.8401 C   0  0  0  0  0  0
   -2.9141    0.6401    0.7684 C   0  0  0  0  0  0
   -0.6853    1.7940    1.8702 Cl  0  0  0  0  0  0
   -2.8032   -1.1341   -0.8831 C   0  0  0  0  0  0
    2.9141    0.6401   -0.7684 C   0  0  0  0  0  0
    0.6853    1.7940   -1.8702 Cl  0  0  0  0  0  0
    2.8032   -1.1341    0.8831 C   0  0  0  0  0  0
   -3.5542   -0.2708   -0.0846 C   0  0  0  0  0  0
   -3.8593    1.7114    1.7628 Cl  0  0  0  0  0  0
    3.5542   -0.2708    0.0846 C   0  0  0  0  0  0
    3.8593    1.7114   -1.7628 Cl  0  0  0  0  0  0
   -5.2787   -0.3854   -0.2015 Cl  0  0  0  0  0  0
    5.2787   -0.3854    0.2015 Cl  0  0  0  0  0  0
   -0.8458   -1.7785   -1.4748 H   0  0  0  0  0  0
    0.8458   -1.7785    1.4748 H   0  0  0  0  0  0
   -3.2943   -1.8440   -1.5459 H   0  0  0  0  0  0
    3.2943   -1.8440    1.5459 H   0  0  0  0  0  0
  1  2  1  0  0  0
  1  3  2  0  0  0
  1  4  1  0  0  0
  2  5  2  0  0  0
  2  6  1  0  0  0
  3  7  1  0  0  0
  3  8  1  0  0  0
  4  9  2  0  0  0
  4 19  1  0  0  0
  5 10  1  0  0  0
  5 11  1  0  0  0
  6 12  2  0  0  0
  6 20  1  0  0  0
  7 13  2  0  0  0
  7 14  1  0  0  0
  9 13  1  0  0  0
  9 21  1  0  0  0
 10 15  2  0  0  0
 10 16  1  0  0  0
 12 15  1  0  0  0
 12 22  1  0  0  0
 13 17  1  0  0  0
 15 18  1  0  0  0
M  END
>  <Name>
tox-351

>  <substance>
2,2',3,3',4,4'-Hexachlorobiphenyl

>  <CASRN>
38380-07-3

>  <from_NCI>
1

>  <RBA>
0.000000

>  <method>
GST-hERadef

>  <chemical_class>
Polychlorinated biphenyl

>  <set>
1

$$$$
tox-352
  Cerius2 12190218263D 1   1.00000                          
 Structure written by MMmdl.
 22 23  0  0  0  0  0  0  0  0999 V2000
    0.7366    0.0447   -0.0041 C   0  0  0  0  0  0
   -0.7370    0.0046   -0.0302 C   0  0  0  0  0  0
    1.4973    0.8746   -0.8602 C   0  0  0  0  0  0
    1.4152   -0.7762    0.9122 C   0  0  0  0  0  0
   -1.4594   -0.8310   -0.9035 C   0  0  0  0  0  0
   -1.4606    0.8280    0.8523 C   0  0  0  0  0  0
    2.9051    0.8701   -0.7992 C   0  0  0  0  0  0
    0.6676    1.9115   -1.9915 Cl  0  0  0  0  0  0
    2.8081   -0.7817    0.9754 C   0  0  0  0  0  0
   -2.8574   -0.8370   -0.8984 C   0  0  0  0  0  0
   -0.6560   -1.8865   -2.0169 Cl  0  0  0  0  0  0
   -2.8597    0.8245    0.8590 C   0  0  0  0  0  0
    3.5522    0.0356    0.1239 C   0  0  0  0  0  0
    3.8415    1.8883   -1.8558 Cl  0  0  0  0  0  0
   -3.5580   -0.0096   -0.0190 C   0  0  0  0  0  0
   -3.6634    1.8729    1.9746 Cl  0  0  0  0  0  0
    5.2769   -0.0348    0.2681 Cl  0  0  0  0  0  0
   -5.2860   -0.0640   -0.0638 Cl  0  0  0  0  0  0
    0.8566   -1.4258    1.5864 H   0  0  0  0  0  0
   -0.9239    1.4813    1.5392 H   0  0  0  0  0  0
    3.3045   -1.4305    1.6945 H   0  0  0  0  0  0
   -3.3996   -1.4877   -1.5803 H   0  0  0  0  0  0
  1  2  1  0  0  0
  1  3  2  0  0  0
  1  4  1  0  0  0
  2  5  2  0  0  0
  2  6  1  0  0  0
  3  7  1  0  0  0
  3  8  1  0  0  0
  4  9  2  0  0  0
  4 19  1  0  0  0
  5 10  1  0  0  0
  5 11  1  0  0  0
  6 12  2  0  0  0
  6 20  1  0  0  0
  7 13  2  0  0  0
  7 14  1  0  0  0
  9 13  1  0  0  0
  9 21  1  0  0  0
 10 15  2  0  0  0
 10 22  1  0  0  0
 12 15  1  0  0  0
 12 16  1  0  0  0
 13 17  1  0  0  0
 15 18  1  0  0  0
M  END
>  <Name>
tox-352

>  <substance>
2,2',3,4,4',5'-Hexachlorobiphenyl

>  <CASRN>
35065-28-2

>  <from_NCI>
1

>  <RBA>
0.000000

>  <method>
GST-hERadef

>  <chemical_class>
Polychlorinated biphenyl

>  <set>
0

$$$$
tox-353
  Cerius2 12190218263D 1   1.00000                          
 Structure written by MMmdl.
 22 23  0  0  0  0  0  0  0  0999 V2000
   -3.3661    2.0602   -0.0121 C   0  0  0  0  0  0
   -3.1537    1.0114    0.8784 C   0  0  0  0  0  0
   -1.9301    0.3322    0.8867 C   0  0  0  0  0  0
   -0.8891    0.6883    0.0035 C   0  0  0  0  0  0
   -1.1318    1.7535   -0.8893 C   0  0  0  0  0  0
   -2.3562    2.4310   -0.8956 C   0  0  0  0  0  0
    0.4046   -0.0276    0.0121 C   0  0  0  0  0  0
    0.5588   -1.1510   -0.8175 C   0  0  0  0  0  0
    1.7587   -1.8656   -0.8502 C   0  0  0  0  0  0
    2.8391   -1.4719   -0.0497 C   0  0  0  0  0  0
    2.7064   -0.3497    0.7888 C   0  0  0  0  0  0
    1.4933    0.3690    0.8188 C   0  0  0  0  0  0
    1.3151    1.7619    1.8533 Cl  0  0  0  0  0  0
    0.0712    2.2792   -2.0224 Cl  0  0  0  0  0  0
   -1.7493   -0.9616    2.0272 Cl  0  0  0  0  0  0
    4.3288   -2.3721   -0.1008 Cl  0  0  0  0  0  0
    4.0421    0.1534    1.7915 Cl  0  0  0  0  0  0
    1.8335   -3.2332   -1.9111 Cl  0  0  0  0  0  0
   -4.3180    2.5879   -0.0177 H   0  0  0  0  0  0
   -3.9481    0.7271    1.5657 H   0  0  0  0  0  0
   -2.5300    3.2516   -1.5890 H   0  0  0  0  0  0
   -0.2713   -1.4713   -1.4469 H   0  0  0  0  0  0
  1  2  2  0  0  0
  1  6  1  0  0  0
  1 19  1  0  0  0
  2  3  1  0  0  0
  2 20  1  0  0  0
  3  4  2  0  0  0
  3 15  1  0  0  0
  4  5  1  0  0  0
  4  7  1  0  0  0
  5  6  2  0  0  0
  5 14  1  0  0  0
  6 21  1  0  0  0
  7  8  2  0  0  0
  7 12  1  0  0  0
  8  9  1  0  0  0
  8 22  1  0  0  0
  9 10  2  0  0  0
  9 18  1  0  0  0
 10 11  1  0  0  0
 10 16  1  0  0  0
 11 12  2  0  0  0
 11 17  1  0  0  0
 12 13  1  0  0  0
M  END
>  <Name>
tox-353

>  <substance>
2,2',3,4,5,6'-Hexachlorobiphenyl

>  <CASRN>
68194-15-0

>  <from_NCI>
1

>  <RBA>
0.000000

>  <method>
GST-hERadef

>  <chemical_class>
Polychlorinated biphenyl

>  <set>
0

$$$$
tox-354
  Cerius2 12190218263D 1   1.00000                          
 Structure written by MMmdl.
 22 23  0  0  0  0  0  0  0  0999 V2000
   -0.4389   -0.0092    0.0149 C   0  0  0  0  0  0
    1.0387    0.0114   -0.0299 C   0  0  0  0  0  0
   -1.1583   -0.8252    0.9090 C   0  0  0  0  0  0
   -1.1655    0.8134   -0.8667 C   0  0  0  0  0  0
    1.7880    0.9056    0.7735 C   0  0  0  0  0  0
    1.7480   -0.8674   -0.8773 C   0  0  0  0  0  0
   -2.5560   -0.8180    0.9211 C   0  0  0  0  0  0
   -0.3499   -1.8692    2.0293 Cl  0  0  0  0  0  0
   -2.5644    0.8223   -0.8566 C   0  0  0  0  0  0
    3.1931    0.9066    0.7223 C   0  0  0  0  0  0
    0.9588    2.0135    1.8345 Cl  0  0  0  0  0  0
    3.1445   -0.8596   -0.9230 C   0  0  0  0  0  0
    0.9300   -2.0013   -1.9030 Cl  0  0  0  0  0  0
   -3.2595    0.0048    0.0395 C   0  0  0  0  0  0
   -3.3719    1.8646   -1.9750 Cl  0  0  0  0  0  0
    3.8652    0.0250   -0.1247 C   0  0  0  0  0  0
    4.1599    1.9749    1.6824 Cl  0  0  0  0  0  0
   -4.9873   -0.0333    0.1054 Cl  0  0  0  0  0  0
   -0.6317    1.4532   -1.5684 H   0  0  0  0  0  0
   -3.0959   -1.4542    1.6183 H   0  0  0  0  0  0
    3.6808   -1.5420   -1.5796 H   0  0  0  0  0  0
    4.9522    0.0194   -0.1704 H   0  0  0  0  0  0
  1  2  1  0  0  0
  1  3  2  0  0  0
  1  4  1  0  0  0
  2  5  2  0  0  0
  2  6  1  0  0  0
  3  7  1  0  0  0
  3  8  1  0  0  0
  4  9  2  0  0  0
  4 19  1  0  0  0
  5 10  1  0  0  0
  5 11  1  0  0  0
  6 12  2  0  0  0
  6 13  1  0  0  0
  7 14  2  0  0  0
  7 20  1  0  0  0
  9 14  1  0  0  0
  9 15  1  0  0  0
 10 16  2  0  0  0
 10 17  1  0  0  0
 12 16  1  0  0  0
 12 21  1  0  0  0
 14 18  1  0  0  0
 16 22  1  0  0  0
M  END
>  <Name>
tox-354

>  <substance>
2,2',3,4',5',6-Hexachlorobiphenyl

>  <CASRN>
38380-04-0

>  <from_NCI>
1

>  <RBA>
0.000000

>  <method>
GST-hERadef

>  <chemical_class>
Polychlorinated biphenyl

>  <set>
0

$$$$
tox-355
  Cerius2 12190218263D 1   1.00000                          
 Structure written by MMmdl.
 22 23  0  0  0  0  0  0  0  0999 V2000
    0.6385    0.0498   -0.0097 C   0  0  0  0  0  0
   -0.6402   -0.6950    0.0247 C   0  0  0  0  0  0
    0.8174    1.2227    0.7653 C   0  0  0  0  0  0
    1.7171   -0.3948   -0.8142 C   0  0  0  0  0  0
   -0.8872   -1.7325    0.9465 C   0  0  0  0  0  0
   -1.6554   -0.3633   -0.8934 C   0  0  0  0  0  0
    2.0366    1.9189    0.7334 C   0  0  0  0  0  0
   -0.4854    1.8050    1.7674 Cl  0  0  0  0  0  0
    2.9299    0.3131   -0.8347 C   0  0  0  0  0  0
    1.5379   -1.8324   -1.7847 Cl  0  0  0  0  0  0
   -2.1091   -2.4127    0.9472 C   0  0  0  0  0  0
    0.3008   -2.2094    2.1118 Cl  0  0  0  0  0  0
   -2.8720   -1.0467   -0.8863 C   0  0  0  0  0  0
    3.0861    1.4638   -0.0634 C   0  0  0  0  0  0
    2.3127    3.3559    1.6606 Cl  0  0  0  0  0  0
    4.2820   -0.1843   -1.7966 Cl  0  0  0  0  0  0
   -3.1026   -2.0693    0.0296 C   0  0  0  0  0  0
   -4.0966   -0.6219   -2.0189 Cl  0  0  0  0  0  0
   -1.4929    0.4337   -1.6171 H   0  0  0  0  0  0
   -2.2961   -3.2129    1.6602 H   0  0  0  0  0  0
    4.0280    2.0073   -0.0835 H   0  0  0  0  0  0
   -4.0496   -2.6040    0.0379 H   0  0  0  0  0  0
  1  2  1  0  0  0
  1  3  2  0  0  0
  1  4  1  0  0  0
  2  5  2  0  0  0
  2  6  1  0  0  0
  3  7  1  0  0  0
  3  8  1  0  0  0
  4  9  2  0  0  0
  4 10  1  0  0  0
  5 11  1  0  0  0
  5 12  1  0  0  0
  6 13  2  0  0  0
  6 19  1  0  0  0
  7 14  2  0  0  0
  7 15  1  0  0  0
  9 14  1  0  0  0
  9 16  1  0  0  0
 11 17  2  0  0  0
 11 20  1  0  0  0
 13 17  1  0  0  0
 13 18  1  0  0  0
 14 21  1  0  0  0
 17 22  1  0  0  0
M  END
>  <Name>
tox-355

>  <substance>
2,2',3,5,5',6-Hexachlorobiphenyl

>  <CASRN>
52663-63-5

>  <from_NCI>
1

>  <RBA>
0.000000

>  <method>
GST-hERadef

>  <chemical_class>
Polychlorinated biphenyl

>  <set>
0

$$$$
tox-356
  Cerius2 12190218263D 1   1.00000                          
 Structure written by MMmdl.
 22 23  0  0  0  0  0  0  0  0999 V2000
   -0.6340   -0.3744   -0.0433 C   0  0  0  0  0  0
    0.6340    0.3744   -0.0433 C   0  0  0  0  0  0
   -0.8722   -1.4655   -0.9004 C   0  0  0  0  0  0
   -1.6551    0.0072    0.8466 C   0  0  0  0  0  0
    0.8722    1.4655   -0.9004 C   0  0  0  0  0  0
    1.6551   -0.0072    0.8466 C   0  0  0  0  0  0
   -2.0922   -2.1476   -0.8720 C   0  0  0  0  0  0
    0.3285   -2.0140   -2.0215 Cl  0  0  0  0  0  0
   -2.8773   -0.6728    0.8766 C   0  0  0  0  0  0
    2.0922    2.1476   -0.8720 C   0  0  0  0  0  0
   -0.3285    2.0140   -2.0215 Cl  0  0  0  0  0  0
    2.8774    0.6729    0.8766 C   0  0  0  0  0  0
   -3.0951   -1.7518    0.0148 C   0  0  0  0  0  0
   -4.0747   -0.1301    1.9997 Cl  0  0  0  0  0  0
    3.0951    1.7518    0.0148 C   0  0  0  0  0  0
    4.0748    0.1302    1.9997 Cl  0  0  0  0  0  0
   -4.5811   -2.6364   -0.0007 Cl  0  0  0  0  0  0
    4.5811    2.6365   -0.0007 Cl  0  0  0  0  0  0
   -1.4937    0.8478    1.5205 H   0  0  0  0  0  0
    1.4938   -0.8478    1.5205 H   0  0  0  0  0  0
   -2.2597   -2.9879   -1.5415 H   0  0  0  0  0  0
    2.2597    2.9879   -1.5415 H   0  0  0  0  0  0
  1  2  1  0  0  0
  1  3  2  0  0  0
  1  4  1  0  0  0
  2  5  2  0  0  0
  2  6  1  0  0  0
  3  7  1  0  0  0
  3  8  1  0  0  0
  4  9  2  0  0  0
  4 19  1  0  0  0
  5 10  1  0  0  0
  5 11  1  0  0  0
  6 12  2  0  0  0
  6 20  1  0  0  0
  7 13  2  0  0  0
  7 21  1  0  0  0
  9 13  1  0  0  0
  9 14  1  0  0  0
 10 15  2  0  0  0
 10 22  1  0  0  0
 12 15  1  0  0  0
 12 16  1  0  0  0
 13 17  1  0  0  0
 15 18  1  0  0  0
M  END
>  <Name>
tox-356

>  <substance>
2,2',4,4',5,5'-Hexachlorobiphenyl

>  <CASRN>
35065-27-1

>  <from_NCI>
1

>  <RBA>
0.000000

>  <method>
GST-hERadef

>  <chemical_class>
Polychlorinated biphenyl

>  <set>
0

$$$$
tox-357
  Cerius2 12190218263D 1   1.00000                          
 Structure written by MMmdl.
 22 23  0  0  0  0  0  0  0  0999 V2000
   -0.7402    0.0000   -0.0057 C   0  0  0  0  0  0
    0.7402    0.0000    0.0057 C   0  0  0  0  0  0
   -1.4664    0.8527   -0.8639 C   0  0  0  0  0  0
   -1.4795   -0.8526    0.8413 C   0  0  0  0  0  0
    1.4664    0.8527    0.8639 C   0  0  0  0  0  0
    1.4795   -0.8526   -0.8413 C   0  0  0  0  0  0
   -2.8642    0.8537   -0.8755 C   0  0  0  0  0  0
   -0.6643    1.9430   -1.9482 Cl  0  0  0  0  0  0
   -2.8773   -0.8535    0.8315 C   0  0  0  0  0  0
   -0.6942   -1.9430    1.9377 Cl  0  0  0  0  0  0
    2.8642    0.8536    0.8755 C   0  0  0  0  0  0
    0.6643    1.9430    1.9482 Cl  0  0  0  0  0  0
    2.8773   -0.8535   -0.8315 C   0  0  0  0  0  0
    0.6942   -1.9430   -1.9377 Cl  0  0  0  0  0  0
   -3.5604    0.0001   -0.0273 C   0  0  0  0  0  0
    3.5604    0.0001    0.0273 C   0  0  0  0  0  0
   -5.2822    0.0002   -0.0405 Cl  0  0  0  0  0  0
    5.2822    0.0002    0.0405 Cl  0  0  0  0  0  0
   -3.4057    1.5182   -1.5442 H   0  0  0  0  0  0
   -3.4291   -1.5180    1.4918 H   0  0  0  0  0  0
    3.4057    1.5182    1.5442 H   0  0  0  0  0  0
    3.4291   -1.5180   -1.4918 H   0  0  0  0  0  0
  1  2  1  0  0  0
  1  3  2  0  0  0
  1  4  1  0  0  0
  2  5  2  0  0  0
  2  6  1  0  0  0
  3  7  1  0  0  0
  3  8  1  0  0  0
  4  9  2  0  0  0
  4 10  1  0  0  0
  5 11  1  0  0  0
  5 12  1  0  0  0
  6 13  2  0  0  0
  6 14  1  0  0  0
  7 15  2  0  0  0
  7 19  1  0  0  0
  9 15  1  0  0  0
  9 20  1  0  0  0
 11 16  2  0  0  0
 11 21  1  0  0  0
 13 16  1  0  0  0
 13 22  1  0  0  0
 15 17  1  0  0  0
 16 18  1  0  0  0
M  END
>  <Name>
tox-357

>  <substance>
2,2',4,4',6,6'-Hexachlorobiphenyl

>  <CASRN>
33979-03-2

>  <from_NCI>
1

>  <RBA>
0.100000

>  <method>
hERa,MUC

>  <chemical_class>
Polychlorinated biphenyl

>  <set>
0

$$$$
tox-358
  Cerius2 12190218263D 1   1.00000                          
 Structure written by MMmdl.
 22 23  0  0  0  0  0  0  0  0999 V2000
   -3.1090    1.7465    0.0678 C   0  0  0  0  0  0
   -2.8865    0.7344   -0.8715 C   0  0  0  0  0  0
   -1.6648    0.0518   -0.8879 C   0  0  0  0  0  0
   -0.6517    0.3707    0.0312 C   0  0  0  0  0  0
   -0.8895    1.3881    0.9682 C   0  0  0  0  0  0
   -2.1087    2.0710    0.9864 C   0  0  0  0  0  0
    0.6350   -0.3504    0.0138 C   0  0  0  0  0  0
    0.8171   -1.5185    0.7820 C   0  0  0  0  0  0
    2.0303   -2.2087    0.7748 C   0  0  0  0  0  0
    3.0933   -1.7491   -0.0012 C   0  0  0  0  0  0
    2.9528   -0.5928   -0.7795 C   0  0  0  0  0  0
    1.7260    0.1021   -0.7700 C   0  0  0  0  0  0
    1.5372    1.5449   -1.7383 Cl  0  0  0  0  0  0
   -0.4508   -2.1641    1.7751 Cl  0  0  0  0  0  0
    4.2869   -0.0292   -1.7453 Cl  0  0  0  0  0  0
   -4.0792    0.2790   -2.0385 Cl  0  0  0  0  0  0
    4.5627   -2.6661    0.0490 Cl  0  0  0  0  0  0
   -4.5936    2.6292    0.1441 Cl  0  0  0  0  0  0
   -1.4987   -0.7353   -1.6217 H   0  0  0  0  0  0
   -0.1232    1.6575    1.6946 H   0  0  0  0  0  0
   -2.2674    2.8556    1.7231 H   0  0  0  0  0  0
    2.1462   -3.1076    1.3763 H   0  0  0  0  0  0
  1  2  2  0  0  0
  1  6  1  0  0  0
  1 18  1  0  0  0
  2  3  1  0  0  0
  2 16  1  0  0  0
  3  4  2  0  0  0
  3 19  1  0  0  0
  4  5  1  0  0  0
  4  7  1  0  0  0
  5  6  2  0  0  0
  5 20  1  0  0  0
  6 21  1  0  0  0
  7  8  2  0  0  0
  7 12  1  0  0  0
  8  9  1  0  0  0
  8 14  1  0  0  0
  9 10  2  0  0  0
  9 22  1  0  0  0
 10 11  1  0  0  0
 10 17  1  0  0  0
 11 12  2  0  0  0
 11 15  1  0  0  0
 12 13  1  0  0  0
M  END
>  <Name>
tox-358

>  <substance>
2,3,3',4,4',6-Hexachlorobiphenyl

>  <CASRN>
74472-42-7

>  <from_NCI>
1

>  <RBA>
0.000000

>  <method>
GST-hERadef

>  <chemical_class>
Polychlorinated biphenyl

>  <set>
0

$$$$
tox-359
  Cerius2 12190218263D 1   1.00000                          
 Structure written by MMmdl.
 22 23  0  0  0  0  0  0  0  0999 V2000
   -3.1047    1.4765    0.0268 C   0  0  0  0  0  0
   -2.9171    0.3865   -0.8343 C   0  0  0  0  0  0
   -1.7028   -0.3103   -0.8441 C   0  0  0  0  0  0
   -0.6520    0.0660    0.0041 C   0  0  0  0  0  0
   -0.8434    1.1566    0.8639 C   0  0  0  0  0  0
   -2.0564    1.8558    0.8764 C   0  0  0  0  0  0
    0.6248   -0.6686   -0.0075 C   0  0  0  0  0  0
    0.8405   -1.7782    0.8371 C   0  0  0  0  0  0
    2.0520   -2.4764    0.8271 C   0  0  0  0  0  0
    3.0707   -2.0759   -0.0297 C   0  0  0  0  0  0
    2.8933   -0.9872   -0.8757 C   0  0  0  0  0  0
    1.6808   -0.2907   -0.8636 C   0  0  0  0  0  0
    1.5327    1.0566   -1.9465 Cl  0  0  0  0  0  0
    4.5631   -2.9345   -0.0433 Cl  0  0  0  0  0  0
   -4.6106    2.3425    0.0407 Cl  0  0  0  0  0  0
   -0.3839   -2.3358    1.9325 Cl  0  0  0  0  0  0
   -2.1891    3.1878    1.9764 Cl  0  0  0  0  0  0
   -4.1503   -0.1600   -1.9216 Cl  0  0  0  0  0  0
   -1.5731   -1.1552   -1.5193 H   0  0  0  0  0  0
   -0.0386    1.4641    1.5305 H   0  0  0  0  0  0
    2.1979   -3.3288    1.4859 H   0  0  0  0  0  0
    3.6945   -0.6797   -1.5431 H   0  0  0  0  0  0
  1  2  2  0  0  0
  1  6  1  0  0  0
  1 15  1  0  0  0
  2  3  1  0  0  0
  2 18  1  0  0  0
  3  4  2  0  0  0
  3 19  1  0  0  0
  4  5  1  0  0  0
  4  7  1  0  0  0
  5  6  2  0  0  0
  5 20  1  0  0  0
  6 17  1  0  0  0
  7  8  2  0  0  0
  7 12  1  0  0  0
  8  9  1  0  0  0
  8 16  1  0  0  0
  9 10  2  0  0  0
  9 21  1  0  0  0
 10 11  1  0  0  0
 10 14  1  0  0  0
 11 12  2  0  0  0
 11 22  1  0  0  0
 12 13  1  0  0  0
M  END
>  <Name>
tox-359

>  <substance>
2,3',4,4',5',6-Hexachlorobiphenyl

>  <CASRN>
59291-65-5

>  <from_NCI>
1

>  <RBA>
0.000000

>  <method>
GST-hERadef

>  <chemical_class>
Polychlorinated biphenyl

>  <set>
0

$$$$
tox-360
  Cerius2 12190218263D 1   1.00000                          
 Structure written by MMmdl.
 22 23  0  0  0  0  0  0  0  0999 V2000
   -3.1145   -1.7603    0.0010 C   0  0  0  0  0  0
   -3.0284   -0.4620    0.5189 C   0  0  0  0  0  0
   -1.9579   -2.3562   -0.5168 C   0  0  0  0  0  0
   -4.6266   -2.6148    0.0010 Cl  0  0  0  0  0  0
   -1.8068    0.2250    0.5171 C   0  0  0  0  0  0
   -4.3987    0.3636    1.1849 Cl  0  0  0  0  0  0
   -0.7391   -1.6642   -0.5150 C   0  0  0  0  0  0
   -1.9575   -3.9560   -1.1829 Cl  0  0  0  0  0  0
   -0.6415   -0.3627    0.0011 C   0  0  0  0  0  0
    0.6415    0.3624    0.0011 C   0  0  0  0  0  0
    1.8089   -0.2289    0.5083 C   0  0  0  0  0  0
    0.7371    1.6675   -0.5061 C   0  0  0  0  0  0
    3.0305    0.4582    0.5100 C   0  0  0  0  0  0
    1.9558    2.3596   -0.5079 C   0  0  0  0  0  0
    3.1145    1.7601    0.0011 C   0  0  0  0  0  0
    4.4034   -0.3720    1.1648 Cl  0  0  0  0  0  0
    1.9527    3.9641   -1.1626 Cl  0  0  0  0  0  0
    4.6266    2.6147    0.0011 Cl  0  0  0  0  0  0
   -1.7643    1.2303    0.9352 H   0  0  0  0  0  0
    0.1440   -2.1464   -0.9330 H   0  0  0  0  0  0
    1.7681   -1.2372    0.9194 H   0  0  0  0  0  0
   -0.1477    2.1526   -0.9172 H   0  0  0  0  0  0
  1  2  2  0  0  0
  1  3  1  0  0  0
  1  4  1  0  0  0
  2  5  1  0  0  0
  2  6  1  0  0  0
  3  7  2  0  0  0
  3  8  1  0  0  0
  5  9  2  0  0  0
  5 19  1  0  0  0
  7  9  1  0  0  0
  7 20  1  0  0  0
  9 10  1  0  0  0
 10 11  2  0  0  0
 10 12  1  0  0  0
 11 13  1  0  0  0
 11 21  1  0  0  0
 12 14  2  0  0  0
 12 22  1  0  0  0
 13 15  2  0  0  0
 13 16  1  0  0  0
 14 15  1  0  0  0
 14 17  1  0  0  0
 15 18  1  0  0  0
M  END
>  <Name>
tox-360

>  <substance>
3,3',4,4',5,5'-Hexachlorobiphenyl

>  <CASRN>
32774-16-6

>  <from_NCI>
1

>  <RBA>
0.000000

>  <method>
GST-hERadef

>  <chemical_class>
Polychlorinated biphenyl

>  <set>
1

$$$$
tox-361
  Cerius2 12190218263D 1   1.00000                          
 Structure written by MMmdl.
 23 24  0  0  0  0  0  0  0  0999 V2000
   -0.7748   -0.0256   -0.4015 C   0  0  0  0  0  0
   -1.5024   -0.9057   -1.2366 C   0  0  0  0  0  0
   -2.9099   -0.9136   -1.2076 C   0  0  0  0  0  0
   -3.5931   -0.0472   -0.3443 C   0  0  0  0  0  0
   -2.8786    0.8199    0.4852 C   0  0  0  0  0  0
   -1.4854    0.8312    0.4594 C   0  0  0  0  0  0
    0.7003    0.0307   -0.3927 C   0  0  0  0  0  0
    1.4429    0.8386   -1.2852 C   0  0  0  0  0  0
    2.8512    0.8523   -1.2385 C   0  0  0  0  0  0
    3.5169    0.0585   -0.2932 C   0  0  0  0  0  0
    2.7908   -0.7366    0.5942 C   0  0  0  0  0  0
    1.3973   -0.7493    0.5453 C   0  0  0  0  0  0
   -4.9684   -0.0556   -0.3166 O   0  0  0  0  0  0
   -3.7083    1.8916    1.5542 Cl  0  0  0  0  0  0
    5.2436    0.0129   -0.1640 Cl  0  0  0  0  0  0
    3.7649    1.8432   -2.3399 Cl  0  0  0  0  0  0
   -3.8280   -1.9825   -2.2262 Cl  0  0  0  0  0  0
    0.5893    1.8240   -2.4442 Cl  0  0  0  0  0  0
   -0.6376   -1.9826   -2.2996 Cl  0  0  0  0  0  0
   -0.9426    1.5142    1.1116 H   0  0  0  0  0  0
    3.3018   -1.3537    1.3308 H   0  0  0  0  0  0
    0.8534   -1.3804    1.2483 H   0  0  0  0  0  0
   -5.2500    0.6136    0.3447 H   0  0  0  0  0  0
  1  2  2  0  0  0
  1  6  1  0  0  0
  1  7  1  0  0  0
  2  3  1  0  0  0
  2 19  1  0  0  0
  3  4  2  0  0  0
  3 17  1  0  0  0
  4  5  1  0  0  0
  4 13  1  0  0  0
  5  6  2  0  0  0
  5 14  1  0  0  0
  6 20  1  0  0  0
  7  8  2  0  0  0
  7 12  1  0  0  0
  8  9  1  0  0  0
  8 18  1  0  0  0
  9 10  2  0  0  0
  9 16  1  0  0  0
 10 11  1  0  0  0
 10 15  1  0  0  0
 11 12  2  0  0  0
 11 21  1  0  0  0
 12 22  1  0  0  0
 13 23  1  0  0  0
M  END
>  <Name>
tox-361

>  <substance>
2,2',3,3',4',5-Hexachloro-4-biphenylol

>  <CASRN>
158076-62-1

>  <from_NCI>
0

>  <RBA>
0.040000

>  <method>
GST-hERadef,hERa

>  <chemical_class>
Polychlorinated biphenyl

>  <set>
0

$$$$
tox-362
  Cerius2 12190218263D 1   1.00000                          
 Structure written by MMmdl.
 23 24  0  0  0  0  0  0  0  0999 V2000
    0.7752    0.0445   -0.4174 C   0  0  0  0  0  0
    1.5257    0.9173   -1.2395 C   0  0  0  0  0  0
    2.9325    0.9082   -1.1893 C   0  0  0  0  0  0
    3.5922    0.0317   -0.3180 C   0  0  0  0  0  0
    2.8549   -0.8286    0.4985 C   0  0  0  0  0  0
    1.4621   -0.8228    0.4518 C   0  0  0  0  0  0
   -0.6987    0.0047   -0.4329 C   0  0  0  0  0  0
   -1.4274   -0.8014   -1.3285 C   0  0  0  0  0  0
   -2.8252   -0.8082   -1.3137 C   0  0  0  0  0  0
   -3.5196   -0.0109   -0.4022 C   0  0  0  0  0  0
   -2.8150    0.7936    0.4982 C   0  0  0  0  0  0
   -1.4159    0.7978    0.4818 C   0  0  0  0  0  0
    4.9670    0.0232   -0.2697 O   0  0  0  0  0  0
   -3.6108    1.8041    1.6538 Cl  0  0  0  0  0  0
    3.6553   -1.9130    1.5770 Cl  0  0  0  0  0  0
   -5.2478   -0.0642   -0.4363 Cl  0  0  0  0  0  0
    3.8787    1.9682   -2.1914 Cl  0  0  0  0  0  0
   -0.6309   -1.8184   -2.4820 Cl  0  0  0  0  0  0
    0.6899    2.0071   -2.3125 Cl  0  0  0  0  0  0
    0.9014   -1.5014    1.0935 H   0  0  0  0  0  0
   -3.3721   -1.4359   -2.0133 H   0  0  0  0  0  0
   -0.8747    1.4283    1.1863 H   0  0  0  0  0  0
    5.2304   -0.6512    0.3937 H   0  0  0  0  0  0
  1  2  2  0  0  0
  1  6  1  0  0  0
  1  7  1  0  0  0
  2  3  1  0  0  0
  2 19  1  0  0  0
  3  4  2  0  0  0
  3 17  1  0  0  0
  4  5  1  0  0  0
  4 13  1  0  0  0
  5  6  2  0  0  0
  5 15  1  0  0  0
  6 20  1  0  0  0
  7  8  2  0  0  0
  7 12  1  0  0  0
  8  9  1  0  0  0
  8 18  1  0  0  0
  9 10  2  0  0  0
  9 21  1  0  0  0
 10 11  1  0  0  0
 10 16  1  0  0  0
 11 12  2  0  0  0
 11 14  1  0  0  0
 12 22  1  0  0  0
 13 23  1  0  0  0
M  END
>  <Name>
tox-362

>  <substance>
2,2',3,4',5,5'-Hexachloro-4-biphenylol

>  <CASRN>
145413-90-7

>  <from_NCI>
0

>  <RBA>
0.020000

>  <method>
GST-hERadef,hERa

>  <chemical_class>
Polychlorinated biphenyl

>  <set>
0

$$$$
tox-363
  Cerius2 12190218263D 1   1.00000                          
 Structure written by MMmdl.
 23 24  0  0  0  0  0  0  0  0999 V2000
    0.7752   -0.0188   -0.3986 C   0  0  0  0  0  0
    1.4878    0.8438   -1.2475 C   0  0  0  0  0  0
    2.8855    0.8722   -1.2255 C   0  0  0  0  0  0
    3.5909    0.0415   -0.3530 C   0  0  0  0  0  0
    2.8882   -0.8163    0.4978 C   0  0  0  0  0  0
    1.4923   -0.8469    0.4789 C   0  0  0  0  0  0
   -0.6949   -0.0465   -0.4224 C   0  0  0  0  0  0
   -1.4347   -0.9608   -1.2031 C   0  0  0  0  0  0
   -2.8451   -0.9419   -1.1852 C   0  0  0  0  0  0
   -3.5263   -0.0059   -0.3855 C   0  0  0  0  0  0
   -2.7920    0.9024    0.3883 C   0  0  0  0  0  0
   -1.3951    0.8795    0.3675 C   0  0  0  0  0  0
    4.9637    0.0756   -0.3380 O   0  0  0  0  0  0
   -3.5468    2.0885    1.4010 Cl  0  0  0  0  0  0
    3.7358   -1.8530    1.5878 Cl  0  0  0  0  0  0
   -5.2668    0.0338   -0.3497 Cl  0  0  0  0  0  0
   -3.7448   -2.0793   -2.1551 Cl  0  0  0  0  0  0
    3.7054    1.9523   -2.2961 Cl  0  0  0  0  0  0
   -0.5785   -2.1123   -2.1956 Cl  0  0  0  0  0  0
    0.9474    1.4957   -1.9323 H   0  0  0  0  0  0
    0.9586   -1.5197    1.1482 H   0  0  0  0  0  0
   -0.8394    1.5925    0.9764 H   0  0  0  0  0  0
    5.2608   -0.5743    0.3353 H   0  0  0  0  0  0
  1  2  2  0  0  0
  1  6  1  0  0  0
  1  7  1  0  0  0
  2  3  1  0  0  0
  2 20  1  0  0  0
  3  4  2  0  0  0
  3 18  1  0  0  0
  4  5  1  0  0  0
  4 13  1  0  0  0
  5  6  2  0  0  0
  5 15  1  0  0  0
  6 21  1  0  0  0
  7  8  2  0  0  0
  7 12  1  0  0  0
  8  9  1  0  0  0
  8 19  1  0  0  0
  9 10  2  0  0  0
  9 17  1  0  0  0
 10 11  1  0  0  0
 10 16  1  0  0  0
 11 12  2  0  0  0
 11 14  1  0  0  0
 12 22  1  0  0  0
 13 23  1  0  0  0
M  END
>  <Name>
tox-363

>  <substance>
2',3,3',4',5,5'-Hexachloro-4-biphenylol

>  <CASRN>
158076-63-2

>  <from_NCI>
0

>  <RBA>
3.200000

>  <method>
MCF-7 cytosol

>  <chemical_class>
Polychlorinated biphenyl

>  <set>
0

$$$$
tox-364
  Cerius2 12190218263D 1   1.00000                          
 Structure written by MMmdl.
 21 20  0  0  0  0  0  0  0  0999 V2000
   -0.5970   -0.3483    0.0000 C   0  0  0  0  0  0
    0.7480    0.3815    0.0000 C   0  0  0  0  0  0
   -1.7729    0.6410    0.0000 C   0  0  0  0  0  0
    1.9158   -0.6046    0.0000 C   0  0  0  0  0  0
   -3.1410   -0.0949    0.0000 C   0  0  0  0  0  0
    3.2540    0.1167    0.0000 C   0  0  0  0  0  0
   -4.0833    0.8343    0.0000 O   0  0  0  0  0  0
   -0.6630   -0.9956    0.8829 H   0  0  0  0  0  0
   -0.6630   -0.9956   -0.8829 H   0  0  0  0  0  0
    0.8141    1.0295    0.8824 H   0  0  0  0  0  0
    0.8141    1.0295   -0.8824 H   0  0  0  0  0  0
   -1.6891    1.2893   -0.8841 H   0  0  0  0  0  0
   -1.6891    1.2893    0.8841 H   0  0  0  0  0  0
    1.8564   -1.2523   -0.8825 H   0  0  0  0  0  0
    1.8564   -1.2523    0.8825 H   0  0  0  0  0  0
   -3.1025   -0.7931    0.8514 H   0  0  0  0  0  0
   -3.1025   -0.7931   -0.8514 H   0  0  0  0  0  0
    4.0748   -0.6072    0.0000 H   0  0  0  0  0  0
    3.3588    0.7491    0.8874 H   0  0  0  0  0  0
    3.3588    0.7491   -0.8874 H   0  0  0  0  0  0
   -4.8477    0.4626    0.0000 H   0  0  0  0  0  0
  1  2  1  0  0  0
  1  3  1  0  0  0
  1  8  1  0  0  0
  1  9  1  0  0  0
  2  4  1  0  0  0
  2 10  1  0  0  0
  2 11  1  0  0  0
  3  5  1  0  0  0
  3 12  1  0  0  0
  3 13  1  0  0  0
  4  6  1  0  0  0
  4 14  1  0  0  0
  4 15  1  0  0  0
  5  7  1  0  0  0
  5 16  1  0  0  0
  5 17  1  0  0  0
  6 18  1  0  0  0
  6 19  1  0  0  0
  6 20  1  0  0  0
  7 21  1  0  0  0
M  END
>  <Name>
tox-364

>  <substance>
n -Hexanol

>  <CASRN>
111-27-3

>  <from_NCI>
1

>  <RBA>
0.000000

>  <method>
RUC

>  <chemical_class>
Alcohol

>  <set>
2

$$$$
tox-365
  Cerius2 12190218263D 1   1.00000                          
 Structure written by MMmdl.
 42 43  0  0  0  0  0  0  0  0999 V2000
   -0.2118   -0.4068    0.8614 C   0  0  0  0  0  0
    0.3364    0.0590   -0.5419 C   0  0  0  0  0  0
   -1.7139   -0.7124    0.7809 C   0  0  0  0  0  0
    0.1453    0.4272    2.1173 C   0  0  0  0  0  0
    1.8444   -0.1562   -0.7349 C   0  0  0  0  0  0
   -0.2324    1.3925   -1.1038 C   0  0  0  0  0  0
   -2.1382   -1.9587    0.3081 C   0  0  0  0  0  0
   -2.7034    0.2024    1.1422 C   0  0  0  0  0  0
    1.6294    0.5176    2.4374 C   0  0  0  0  0  0
    2.3739   -1.4494   -0.6294 C   0  0  0  0  0  0
    2.7432    0.8567   -1.0730 C   0  0  0  0  0  0
   -0.0762    2.6539   -0.2681 C   0  0  0  0  0  0
   -3.5063   -2.2720    0.2129 C   0  0  0  0  0  0
   -4.0677   -0.1308    1.0392 C   0  0  0  0  0  0
    3.7452   -1.7021   -0.8241 C   0  0  0  0  0  0
    4.1136    0.5849   -1.2640 C   0  0  0  0  0  0
   -4.5286   -1.3764    0.5741 C   0  0  0  0  0  0
    4.6744   -0.6989   -1.1461 C   0  0  0  0  0  0
   -5.7637   -1.6668    0.4866 O   0  0  0  0  0  0
    5.9122   -0.9324   -1.3217 O   0  0  0  0  0  0
    0.2449   -1.3854    1.0710 H   0  0  0  0  0  0
   -0.0735   -0.6733   -1.2595 H   0  0  0  0  0  0
   -0.3384   -0.0435    2.9850 H   0  0  0  0  0  0
   -0.2653    1.4372    2.0758 H   0  0  0  0  0  0
   -1.3035    1.2626   -1.3055 H   0  0  0  0  0  0
    0.2158    1.5764   -2.0896 H   0  0  0  0  0  0
   -1.4099   -2.7107    0.0045 H   0  0  0  0  0  0
   -2.4477    1.1944    1.5079 H   0  0  0  0  0  0
    1.7686    0.9557    3.4315 H   0  0  0  0  0  0
    2.1557    1.1602    1.7289 H   0  0  0  0  0  0
    2.0980   -0.4710    2.4407 H   0  0  0  0  0  0
    1.7258   -2.2959   -0.4031 H   0  0  0  0  0  0
    2.4192    1.8858   -1.2039 H   0  0  0  0  0  0
   -0.1897    3.5357   -0.9083 H   0  0  0  0  0  0
    0.8964    2.7217    0.2231 H   0  0  0  0  0  0
   -0.8588    2.7235    0.4908 H   0  0  0  0  0  0
   -3.7670   -3.2657   -0.1631 H   0  0  0  0  0  0
   -4.7915    0.6325    1.3403 H   0  0  0  0  0  0
    4.0825   -2.7375   -0.7202 H   0  0  0  0  0  0
    4.7576    1.4313   -1.5212 H   0  0  0  0  0  0
   -6.2294   -1.0055    0.7478 H   0  0  0  0  0  0
    6.3138   -0.2068   -1.5080 H   0  0  0  0  0  0
  1  2  1  0  0  0
  1  3  1  0  0  0
  1  4  1  0  0  0
  1 21  1  0  0  0
  2  5  1  0  0  0
  2  6  1  0  0  0
  2 22  1  0  0  0
  3  7  2  0  0  0
  3  8  1  0  0  0
  4  9  1  0  0  0
  4 23  1  0  0  0
  4 24  1  0  0  0
  5 10  2  0  0  0
  5 11  1  0  0  0
  6 12  1  0  0  0
  6 25  1  0  0  0
  6 26  1  0  0  0
  7 13  1  0  0  0
  7 27  1  0  0  0
  8 14  2  0  0  0
  8 28  1  0  0  0
  9 29  1  0  0  0
  9 30  1  0  0  0
  9 31  1  0  0  0
 10 15  1  0  0  0
 10 32  1  0  0  0
 11 16  2  0  0  0
 11 33  1  0  0  0
 12 34  1  0  0  0
 12 35  1  0  0  0
 12 36  1  0  0  0
 13 17  2  0  0  0
 13 37  1  0  0  0
 14 17  1  0  0  0
 14 38  1  0  0  0
 15 18  2  0  0  0
 15 39  1  0  0  0
 16 18  1  0  0  0
 16 40  1  0  0  0
 17 19  1  0  0  0
 18 20  1  0  0  0
 19 41  1  0  0  0
 20 42  1  0  0  0
M  END
>  <Name>
tox-365

>  <substance>
Hexestrol

>  <CASRN>
84-16-2

>  <from_NCI>
1

>  <RBA>
215.000000

>  <method>
hERa,MCF-7 cytosol,RBC,RUC,RUC

>  <chemical_class>
Diphenolalkane; Bisphenol

>  <set>
0

$$$$
tox-366
  Cerius2 12190218263D 1   1.00000                          
 Structure written by MMmdl.
 42 43  0  0  0  0  0  0  0  0999 V2000
    0.6066   -0.4917    1.0555 C   0  0  0  0  0  0
   -0.1663   -0.2751   -0.2967 C   0  0  0  0  0  0
    1.7429    0.5247    1.1904 C   0  0  0  0  0  0
   -1.6459   -0.6287   -0.1291 C   0  0  0  0  0  0
    3.0293    0.3083    0.6954 C   0  0  0  0  0  0
    1.4962    1.7518    1.8142 C   0  0  0  0  0  0
   -2.5493    0.3647    0.2617 C   0  0  0  0  0  0
   -2.1548   -1.9137   -0.3206 C   0  0  0  0  0  0
   -4.4620   -1.2061    0.2462 C   0  0  0  0  0  0
    3.8203    2.5281    1.4649 C   0  0  0  0  0  0
   -3.9145    0.0751    0.4389 C   0  0  0  0  0  0
    2.5116    2.7167    1.9446 C   0  0  0  0  0  0
   -3.5248   -2.1829   -0.1381 C   0  0  0  0  0  0
    4.0318    1.2870    0.8362 C   0  0  0  0  0  0
    4.7336    3.4048    1.5872 O   0  0  0  0  0  0
   -5.6978   -1.4603    0.4074 O   0  0  0  0  0  0
    0.5077   -0.9493   -1.5180 C   0  0  0  0  0  0
    1.0417   -1.9584    1.2999 C   0  0  0  0  0  0
   -0.0975   -0.5157   -2.8501 C   0  0  0  0  0  0
    1.5500   -2.2034    2.7177 C   0  0  0  0  0  0
   -0.0941   -0.2584    1.8722 H   0  0  0  0  0  0
   -0.1454    0.8040   -0.5145 H   0  0  0  0  0  0
    3.2882   -0.6189    0.1881 H   0  0  0  0  0  0
    0.5068    1.9805    2.2102 H   0  0  0  0  0  0
   -2.2066    1.3845    0.4366 H   0  0  0  0  0  0
   -1.5068   -2.7375   -0.6132 H   0  0  0  0  0  0
   -4.5655    0.9001    0.7428 H   0  0  0  0  0  0
    2.2501    3.6534    2.4455 H   0  0  0  0  0  0
   -3.8578   -3.2112   -0.3074 H   0  0  0  0  0  0
    5.0191    1.0519    0.4278 H   0  0  0  0  0  0
    0.4654   -2.0415   -1.4492 H   0  0  0  0  0  0
    1.5693   -0.6821   -1.5431 H   0  0  0  0  0  0
    1.8124   -2.2736    0.5886 H   0  0  0  0  0  0
    0.1862   -2.6240    1.1437 H   0  0  0  0  0  0
    0.4568   -0.9696   -3.6780 H   0  0  0  0  0  0
   -0.0473    0.5715   -2.9673 H   0  0  0  0  0  0
   -1.1427   -0.8249   -2.9411 H   0  0  0  0  0  0
    1.7802   -3.2650    2.8542 H   0  0  0  0  0  0
    0.7936   -1.9249    3.4583 H   0  0  0  0  0  0
    2.4619   -1.6364    2.9257 H   0  0  0  0  0  0
    5.4529    3.1150    1.2392 H   0  0  0  0  0  0
   -5.8412   -2.2826    0.2469 H   0  0  0  0  0  0
  1  2  1  0  0  0
  1  3  1  0  0  0
  1 18  1  0  0  0
  1 21  1  0  0  0
  2  4  1  0  0  0
  2 17  1  0  0  0
  2 22  1  0  0  0
  3  5  2  0  0  0
  3  6  1  0  0  0
  4  7  2  0  0  0
  4  8  1  0  0  0
  5 14  1  0  0  0
  5 23  1  0  0  0
  6 12  2  0  0  0
  6 24  1  0  0  0
  7 11  1  0  0  0
  7 25  1  0  0  0
  8 13  2  0  0  0
  8 26  1  0  0  0
  9 11  2  0  0  0
  9 13  1  0  0  0
  9 16  1  0  0  0
 10 12  1  0  0  0
 10 14  2  0  0  0
 10 15  1  0  0  0
 11 27  1  0  0  0
 12 28  1  0  0  0
 13 29  1  0  0  0
 14 30  1  0  0  0
 15 41  1  0  0  0
 16 42  1  0  0  0
 17 19  1  0  0  0
 17 31  1  0  0  0
 17 32  1  0  0  0
 18 20  1  0  0  0
 18 33  1  0  0  0
 18 34  1  0  0  0
 19 35  1  0  0  0
 19 36  1  0  0  0
 19 37  1  0  0  0
 20 38  1  0  0  0
 20 39  1  0  0  0
 20 40  1  0  0  0
M  END
>  <Name>
tox-366

>  <substance>
DL -Hexestrol

>  <CASRN>
5776-72-7

>  <from_NCI>
1

>  <RBA>
3.600000

>  <method>
RUC

>  <chemical_class>
Diphenolalkane

>  <set>
0

$$$$
tox-367
  Cerius2 12190218263D 1   1.00000                          
 Structure written by MMmdl.
 45 46  0  0  0  0  0  0  0  0999 V2000
   -0.4983    0.0063    0.7378 C   0  0  0  0  0  0
   -1.1304   -0.5691   -0.5857 C   0  0  0  0  0  0
   -0.7599   -0.7922    2.0442 C   0  0  0  0  0  0
    0.9464    0.4891    0.5317 C   0  0  0  0  0  0
   -0.4174   -1.8276   -1.1421 C   0  0  0  0  0  0
   -2.6545   -0.6580   -0.4863 C   0  0  0  0  0  0
   -0.4369   -2.2790    2.0615 C   0  0  0  0  0  0
    1.1792    1.5745   -0.3318 C   0  0  0  0  0  0
    2.0575   -0.0757    1.1708 C   0  0  0  0  0  0
   -0.7431   -2.0895   -2.6110 C   0  0  0  0  0  0
   -3.3512   -1.8450   -0.2620 C   0  0  0  0  0  0
   -3.4153    0.5102   -0.6120 C   0  0  0  0  0  0
    2.4718    2.0568   -0.5597 C   0  0  0  0  0  0
    3.3548    0.4079    0.9421 C   0  0  0  0  0  0
   -4.7572   -1.8543   -0.1723 C   0  0  0  0  0  0
   -4.8188    0.4805   -0.5192 C   0  0  0  0  0  0
    3.5682    1.4746    0.0732 C   0  0  0  0  0  0
   -5.5505   -0.6990   -0.2965 C   0  0  0  0  0  0
    4.7767    2.0356   -0.2330 O   0  0  0  0  0  0
   -6.8195   -0.7199   -0.2144 O   0  0  0  0  0  0
    5.9254    1.4630    0.3902 C   0  0  0  0  0  0
   -1.0337    0.9507    0.9344 H   0  0  0  0  0  0
   -0.9588    0.1932   -1.3612 H   0  0  0  0  0  0
   -1.8209   -0.6888    2.3076 H   0  0  0  0  0  0
   -0.2157   -0.3104    2.8673 H   0  0  0  0  0  0
   -0.6618   -2.7270   -0.5734 H   0  0  0  0  0  0
    0.6687   -1.7020   -1.0702 H   0  0  0  0  0  0
   -0.3974   -2.6345    3.0970 H   0  0  0  0  0  0
    0.5199   -2.5151    1.5920 H   0  0  0  0  0  0
   -1.2178   -2.8593    1.5654 H   0  0  0  0  0  0
    0.3477    2.0656   -0.8374 H   0  0  0  0  0  0
    1.9520   -0.9015    1.8688 H   0  0  0  0  0  0
   -0.1853   -2.9613   -2.9680 H   0  0  0  0  0  0
   -0.4625   -1.2337   -3.2333 H   0  0  0  0  0  0
   -1.8077   -2.2904   -2.7608 H   0  0  0  0  0  0
   -2.8320   -2.7939   -0.1520 H   0  0  0  0  0  0
   -2.9271    1.4692   -0.7863 H   0  0  0  0  0  0
    2.6150    2.8969   -1.2373 H   0  0  0  0  0  0
    4.1733   -0.0773    1.4677 H   0  0  0  0  0  0
   -5.2386   -2.8209    0.0035 H   0  0  0  0  0  0
   -5.3477    1.4317   -0.6285 H   0  0  0  0  0  0
    6.8030    2.0155    0.0411 H   0  0  0  0  0  0
    6.0513    0.4156    0.0968 H   0  0  0  0  0  0
    5.8757    1.5685    1.4790 H   0  0  0  0  0  0
   -7.1229    0.0679   -0.3139 H   0  0  0  0  0  0
  1  2  1  0  0  0
  1  3  1  0  0  0
  1  4  1  0  0  0
  1 22  1  0  0  0
  2  5  1  0  0  0
  2  6  1  0  0  0
  2 23  1  0  0  0
  3  7  1  0  0  0
  3 24  1  0  0  0
  3 25  1  0  0  0
  4  8  2  0  0  0
  4  9  1  0  0  0
  5 10  1  0  0  0
  5 26  1  0  0  0
  5 27  1  0  0  0
  6 11  2  0  0  0
  6 12  1  0  0  0
  7 28  1  0  0  0
  7 29  1  0  0  0
  7 30  1  0  0  0
  8 13  1  0  0  0
  8 31  1  0  0  0
  9 14  2  0  0  0
  9 32  1  0  0  0
 10 33  1  0  0  0
 10 34  1  0  0  0
 10 35  1  0  0  0
 11 15  1  0  0  0
 11 36  1  0  0  0
 12 16  2  0  0  0
 12 37  1  0  0  0
 13 17  2  0  0  0
 13 38  1  0  0  0
 14 17  1  0  0  0
 14 39  1  0  0  0
 15 18  2  0  0  0
 15 40  1  0  0  0
 16 18  1  0  0  0
 16 41  1  0  0  0
 17 19  1  0  0  0
 18 20  1  0  0  0
 19 21  1  0  0  0
 20 45  1  0  0  0
 21 42  1  0  0  0
 21 43  1  0  0  0
 21 44  1  0  0  0
M  END
>  <Name>
tox-367

>  <substance>
Hexestrol monomethyl ether

>  <CASRN>
13026-26-1

>  <from_NCI>
1

>  <RBA>
9.400000

>  <method>
RUC

>  <chemical_class>
Alkoxyphenol

>  <set>
1

$$$$
tox-368
  Cerius2 12190218263D 1   1.00000                          
 Structure written by MMmdl.
 28 31  0  0  0  0  0  0  0  0999 V2000
   -2.1855   -1.2866   -0.6116 C   0  0  0  0  0  0
   -1.9417    0.0793   -0.7353 C   0  0  0  0  0  0
   -0.6991    0.4698   -0.0905 C   0  0  0  0  0  0
   -0.0391   -0.6128    0.5019 C   0  0  0  0  0  0
   -0.9389   -2.0664    0.2621 S   0  0  0  0  0  0
   -0.0981    1.7502    0.0099 C   0  0  0  0  0  0
    1.1152    1.9307    0.6787 C   0  0  0  0  0  0
    1.7713    0.8530    1.2679 C   0  0  0  0  0  0
    2.9904    1.0334    1.9399 C   0  0  0  0  0  0
    3.6394   -0.0500    2.5259 C   0  0  0  0  0  0
    3.0993   -1.3277    2.4600 C   0  0  0  0  0  0
    1.8871   -1.5281    1.7959 C   0  0  0  0  0  0
    1.2077   -0.4441    1.1921 C   0  0  0  0  0  0
   -2.8974    0.8584   -1.4405 C   0  0  0  0  0  0
   -4.0401    0.2676   -1.9881 C   0  0  0  0  0  0
   -4.2553   -1.0946   -1.8485 C   0  0  0  0  0  0
   -3.3356   -1.8887   -1.1613 C   0  0  0  0  0  0
    4.8214    0.1837    3.1661 O   0  0  0  0  0  0
   -0.5843    2.6151   -0.4398 H   0  0  0  0  0  0
    1.5376    2.9341    0.7295 H   0  0  0  0  0  0
    3.4405    2.0224    2.0096 H   0  0  0  0  0  0
    3.6028   -2.1769    2.9163 H   0  0  0  0  0  0
    1.4845   -2.5385    1.7580 H   0  0  0  0  0  0
   -2.7456    1.9301   -1.5604 H   0  0  0  0  0  0
   -4.7613    0.8816   -2.5253 H   0  0  0  0  0  0
   -5.1469   -1.5506   -2.2768 H   0  0  0  0  0  0
   -3.5089   -2.9575   -1.0542 H   0  0  0  0  0  0
    5.1540   -0.6675    3.5236 H   0  0  0  0  0  0
  1  2  2  0  0  0
  1  5  1  0  0  0
  1 17  1  0  0  0
  2  3  1  0  0  0
  2 14  1  0  0  0
  3  4  2  0  0  0
  3  6  1  0  0  0
  4  5  1  0  0  0
  4 13  1  0  0  0
  6  7  2  0  0  0
  6 19  1  0  0  0
  7  8  1  0  0  0
  7 20  1  0  0  0
  8  9  2  0  0  0
  8 13  1  0  0  0
  9 10  1  0  0  0
  9 21  1  0  0  0
 10 11  2  0  0  0
 10 18  1  0  0  0
 11 12  1  0  0  0
 11 22  1  0  0  0
 12 13  2  0  0  0
 12 23  1  0  0  0
 14 15  2  0  0  0
 14 24  1  0  0  0
 15 16  1  0  0  0
 15 25  1  0  0  0
 16 17  2  0  0  0
 16 26  1  0  0  0
 17 27  1  0  0  0
 18 28  1  0  0  0
M  END
>  <Name>
tox-368

>  <substance>
3-Hydroxybenzo[b ]naphtho[2,1- d]thiophene

>  <CASRN>


>  <from_NCI>
0

>  <RBA>
1.800000

>  <method>
GST-hERadef

>  <chemical_class>
Thiophene

>  <set>
2

$$$$
tox-369
  Cerius2 12190218263D 1   1.00000                          
 Structure written by MMmdl.
 31 34  0  0  0  0  0  0  0  0999 V2000
   -0.5699    0.8450    0.0619 C   0  0  0  0  0  0
   -0.4729   -0.6219   -0.0022 C   0  0  0  0  0  0
    0.7391   -1.4486   -0.0684 C   0  0  0  0  0  0
   -1.8274    1.4721   -0.1101 C   0  0  0  0  0  0
    0.5034    1.7487    0.3536 C   0  0  0  0  0  0
   -1.7083   -1.3313   -0.0020 C   0  0  0  0  0  0
    0.6493   -2.8596    0.0992 C   0  0  0  0  0  0
   -2.9864    0.7121   -0.2290 C   0  0  0  0  0  0
   -2.9300   -0.6685   -0.1283 C   0  0  0  0  0  0
   -1.7542   -2.7211    0.1235 C   0  0  0  0  0  0
   -0.5926   -3.4709    0.2198 C   0  0  0  0  0  0
   -1.9402    2.8664   -0.1287 C   0  0  0  0  0  0
    0.4381    3.1649    0.3630 C   0  0  0  0  0  0
   -0.8276    3.6848    0.0853 C   0  0  0  0  0  0
    1.4446    3.9006    0.6146 O   0  0  0  0  0  0
    2.0458   -0.9732   -0.3594 C   0  0  0  0  0  0
    1.7938   -3.6766    0.1099 C   0  0  0  0  0  0
    3.1826   -1.7920   -0.3631 C   0  0  0  0  0  0
    3.0587   -3.1444   -0.1044 C   0  0  0  0  0  0
    1.4597    1.3241    0.6616 H   0  0  0  0  0  0
   -3.9596    1.1877   -0.3481 H   0  0  0  0  0  0
   -3.8673   -1.2250   -0.1630 H   0  0  0  0  0  0
   -2.7088   -3.2473    0.1588 H   0  0  0  0  0  0
   -0.6782   -4.5511    0.3360 H   0  0  0  0  0  0
   -2.9070    3.3441   -0.2898 H   0  0  0  0  0  0
   -0.9828    4.7669    0.0653 H   0  0  0  0  0  0
    2.2105    0.0581   -0.6585 H   0  0  0  0  0  0
    1.7050   -4.7524    0.2648 H   0  0  0  0  0  0
    4.1586   -1.3642   -0.5861 H   0  0  0  0  0  0
    3.9345   -3.7897   -0.1052 H   0  0  0  0  0  0
    1.2151    4.7181    0.5745 H   0  0  0  0  0  0
  1  2  2  0  0  0
  1  4  1  0  0  0
  1  5  1  0  0  0
  2  3  1  0  0  0
  2  6  1  0  0  0
  3  7  2  0  0  0
  3 16  1  0  0  0
  4  8  2  0  0  0
  4 12  1  0  0  0
  5 13  2  0  0  0
  5 20  1  0  0  0
  6  9  2  0  0  0
  6 10  1  0  0  0
  7 11  1  0  0  0
  7 17  1  0  0  0
  8  9  1  0  0  0
  8 21  1  0  0  0
  9 22  1  0  0  0
 10 11  2  0  0  0
 10 23  1  0  0  0
 11 24  1  0  0  0
 12 14  2  0  0  0
 12 25  1  0  0  0
 13 14  1  0  0  0
 13 15  1  0  0  0
 14 26  1  0  0  0
 15 31  1  0  0  0
 16 18  2  0  0  0
 16 27  1  0  0  0
 17 19  2  0  0  0
 17 28  1  0  0  0
 18 19  1  0  0  0
 18 29  1  0  0  0
 19 30  1  0  0  0
M  END
>  <Name>
tox-369

>  <substance>
2-Hydroxybenzo[c ]phenanthrene

>  <CASRN>
22717-94-8

>  <from_NCI>
1

>  <RBA>
2.200000

>  <method>
GST-hERadef

>  <chemical_class>
Polycyclic aromatic hydrocarbon

>  <set>
2

$$$$
tox-370
  Cerius2 12190218263D 1   1.00000                          
 Structure written by MMmdl.
 34 38  0  0  0  0  0  0  0  0999 V2000
    2.9968   -2.0226    1.2316 C   0  0  0  0  0  0
    2.7545   -0.6502    1.3047 C   0  0  0  0  0  0
    1.5389   -0.2789    0.6040 C   0  0  0  0  0  0
    0.9106   -1.3774    0.0307 C   0  0  0  0  0  0
    1.7757   -2.8270    0.3354 S   0  0  0  0  0  0
    0.9252    0.9850    0.4264 C   0  0  0  0  0  0
   -0.2907   -1.2468   -0.7004 C   0  0  0  0  0  0
   -0.9095    0.0154   -0.8817 C   0  0  0  0  0  0
   -2.1344    0.2103   -1.6173 C   0  0  0  0  0  0
   -2.8629   -0.8332   -2.2446 C   0  0  0  0  0  0
   -4.0482   -0.5974   -2.9487 C   0  0  0  0  0  0
   -4.5393    0.6916   -3.0453 C   0  0  0  0  0  0
   -3.8633    1.7476   -2.4490 C   0  0  0  0  0  0
   -2.6708    1.5198   -1.7391 C   0  0  0  0  0  0
   -2.0098    2.5982   -1.1485 C   0  0  0  0  0  0
   -0.8278    2.4065   -0.4394 C   0  0  0  0  0  0
   -0.2714    1.1326   -0.2992 C   0  0  0  0  0  0
    3.6868    0.1473    2.0193 C   0  0  0  0  0  0
    4.8063   -0.4306    2.6256 C   0  0  0  0  0  0
    5.0209   -1.7974    2.5358 C   0  0  0  0  0  0
    4.1238   -2.6105    1.8408 C   0  0  0  0  0  0
   -5.6965    0.8882   -3.7382 O   0  0  0  0  0  0
    1.4011    1.8605    0.8677 H   0  0  0  0  0  0
   -0.7284   -2.1480   -1.1219 H   0  0  0  0  0  0
   -2.5194   -1.8646   -2.1981 H   0  0  0  0  0  0
   -4.5754   -1.4267   -3.4148 H   0  0  0  0  0  0
   -4.2597    2.7584   -2.5319 H   0  0  0  0  0  0
   -2.4079    3.6094   -1.2324 H   0  0  0  0  0  0
   -0.3441    3.2762    0.0060 H   0  0  0  0  0  0
    3.5351    1.2226    2.1005 H   0  0  0  0  0  0
    5.5105    0.1973    3.1695 H   0  0  0  0  0  0
    5.8948   -2.2422    3.0100 H   0  0  0  0  0  0
    4.2967   -3.6825    1.7734 H   0  0  0  0  0  0
   -5.9137    1.8448   -3.7174 H   0  0  0  0  0  0
  1  2  2  0  0  0
  1  5  1  0  0  0
  1 21  1  0  0  0
  2  3  1  0  0  0
  2 18  1  0  0  0
  3  4  2  0  0  0
  3  6  1  0  0  0
  4  5  1  0  0  0
  4  7  1  0  0  0
  6 17  2  0  0  0
  6 23  1  0  0  0
  7  8  2  0  0  0
  7 24  1  0  0  0
  8  9  1  0  0  0
  8 17  1  0  0  0
  9 10  2  0  0  0
  9 14  1  0  0  0
 10 11  1  0  0  0
 10 25  1  0  0  0
 11 12  2  0  0  0
 11 26  1  0  0  0
 12 13  1  0  0  0
 12 22  1  0  0  0
 13 14  2  0  0  0
 13 27  1  0  0  0
 14 15  1  0  0  0
 15 16  2  0  0  0
 15 28  1  0  0  0
 16 17  1  0  0  0
 16 29  1  0  0  0
 18 19  2  0  0  0
 18 30  1  0  0  0
 19 20  1  0  0  0
 19 31  1  0  0  0
 20 21  2  0  0  0
 20 32  1  0  0  0
 21 33  1  0  0  0
 22 34  1  0  0  0
M  END
>  <Name>
tox-370

>  <substance>
3-Hydroxybenzo[b ]phenanthro[2,3- d]thiophene

>  <CASRN>


>  <from_NCI>
0

>  <RBA>
2.400000

>  <method>
GST-hERadef

>  <chemical_class>
Thiophene

>  <set>
0

$$$$
tox-371
  Cerius2 12190218263D 1   1.00000                          
 Structure written by MMmdl.
 29 30  0  0  0  0  0  0  0  0999 V2000
   -0.8959   -1.2560    2.2554 C   0  0  0  0  0  0
   -1.9192   -0.8071    3.0853 C   0  0  0  0  0  0
   -3.2226   -1.3162    2.9440 C   0  0  0  0  0  0
   -3.5709   -2.2919    1.9894 C   0  0  0  0  0  0
   -4.7513   -2.7498    1.8727 O   0  0  0  0  0  0
   -2.5027   -2.7209    1.1766 C   0  0  0  0  0  0
   -1.1928   -2.2234    1.2995 C   0  0  0  0  0  0
    0.4667   -0.7536    2.4286 C   0  0  0  0  0  0
    3.5047    2.5042   -2.2760 C   0  0  0  0  0  0
    2.2513    3.0843   -2.0866 C   0  0  0  0  0  0
    1.3263    2.4813   -1.2319 C   0  0  0  0  0  0
    1.6588    1.3015   -0.5521 C   0  0  0  0  0  0
    0.6449    0.6916    0.3520 C   0  0  0  0  0  0
   -0.5485    0.7793    0.0758 O   0  0  0  0  0  0
    1.1504    0.0584    1.6067 C   0  0  0  0  0  0
    2.9146    0.7157   -0.7560 C   0  0  0  0  0  0
    3.8351    1.3207   -1.6158 C   0  0  0  0  0  0
   -1.7244   -0.0572    3.8500 H   0  0  0  0  0  0
   -3.9887   -0.9249    3.6198 H   0  0  0  0  0  0
   -2.6799   -3.4791    0.4083 H   0  0  0  0  0  0
   -0.4168   -2.6089    0.6398 H   0  0  0  0  0  0
    0.9602   -1.1044    3.3351 H   0  0  0  0  0  0
    4.2256    2.9735   -2.9442 H   0  0  0  0  0  0
    1.9941    4.0061   -2.6049 H   0  0  0  0  0  0
    0.3502    2.9418   -1.0918 H   0  0  0  0  0  0
    2.1691    0.3179    1.8864 H   0  0  0  0  0  0
    3.1877   -0.2177   -0.2687 H   0  0  0  0  0  0
    4.8113    0.8649   -1.7735 H   0  0  0  0  0  0
   -4.7712   -3.3262    1.2483 H   0  0  0  0  0  0
  1  2  2  0  0  0
  1  7  1  0  0  0
  1  8  1  0  0  0
  2  3  1  0  0  0
  2 18  1  0  0  0
  3  4  2  0  0  0
  3 19  1  0  0  0
  4  5  1  0  0  0
  4  6  1  0  0  0
  5 29  1  0  0  0
  6  7  2  0  0  0
  6 20  1  0  0  0
  7 21  1  0  0  0
  8 15  2  0  0  0
  8 22  1  0  0  0
  9 10  2  0  0  0
  9 17  1  0  0  0
  9 23  1  0  0  0
 10 11  1  0  0  0
 10 24  1  0  0  0
 11 12  2  0  0  0
 11 25  1  0  0  0
 12 13  1  0  0  0
 12 16  1  0  0  0
 13 14  2  0  0  0
 13 15  1  0  0  0
 15 26  1  0  0  0
 16 17  2  0  0  0
 16 27  1  0  0  0
 17 28  1  0  0  0
M  END
>  <Name>
tox-371

>  <substance>
4-Hydroxychalcone

>  <CASRN>
20426-12-4

>  <from_NCI>
1

>  <RBA>
0.003000

>  <method>
RUC

>  <chemical_class>
Chalconoid

>  <set>
2

$$$$
tox-372
  Cerius2 12190218263D 1   1.00000                          
 Structure written by MMmdl.
 29 30  0  0  0  0  0  0  0  0999 V2000
    4.1912    2.1431   -0.2774 C   0  0  0  0  0  0
    3.3346    3.2122   -0.5279 C   0  0  0  0  0  0
    1.9608    3.0738   -0.3114 C   0  0  0  0  0  0
    1.4250    1.8621    0.1474 C   0  0  0  0  0  0
    2.3007    0.7997    0.4105 C   0  0  0  0  0  0
    3.6751    0.9383    0.1942 C   0  0  0  0  0  0
   -0.0243    1.7771    0.3857 C   0  0  0  0  0  0
   -0.7495    0.6529    0.2699 C   0  0  0  0  0  0
   -2.2155    0.6792    0.5367 C   0  0  0  0  0  0
   -2.7649    1.6598    1.0379 O   0  0  0  0  0  0
   -3.0091   -0.5387    0.2114 C   0  0  0  0  0  0
   -4.1610   -0.8046    0.9512 C   0  0  0  0  0  0
   -4.9421   -1.9380    0.6669 C   0  0  0  0  0  0
   -4.6298   -2.8494   -0.3599 C   0  0  0  0  0  0
   -5.3418   -3.8723   -0.6100 O   0  0  0  0  0  0
   -3.4678   -2.5337   -1.0911 C   0  0  0  0  0  0
   -2.6695   -1.4065   -0.8245 C   0  0  0  0  0  0
    5.2615    2.2503   -0.4445 H   0  0  0  0  0  0
    3.7347    4.1573   -0.8910 H   0  0  0  0  0  0
    1.3111    3.9252   -0.5128 H   0  0  0  0  0  0
    1.9315   -0.1486    0.7973 H   0  0  0  0  0  0
    4.3434    0.1037    0.4001 H   0  0  0  0  0  0
   -0.5107    2.7151    0.6510 H   0  0  0  0  0  0
   -0.3015   -0.2932   -0.0083 H   0  0  0  0  0  0
   -4.4650   -0.1432    1.7608 H   0  0  0  0  0  0
   -5.8311   -2.1017    1.2832 H   0  0  0  0  0  0
   -3.1568   -3.1831   -1.9152 H   0  0  0  0  0  0
   -1.8038   -1.2275   -1.4575 H   0  0  0  0  0  0
   -5.0012   -4.3028   -1.2590 H   0  0  0  0  0  0
  1  2  2  0  0  0
  1  6  1  0  0  0
  1 18  1  0  0  0
  2  3  1  0  0  0
  2 19  1  0  0  0
  3  4  2  0  0  0
  3 20  1  0  0  0
  4  5  1  0  0  0
  4  7  1  0  0  0
  5  6  2  0  0  0
  5 21  1  0  0  0
  6 22  1  0  0  0
  7  8  2  0  0  0
  7 23  1  0  0  0
  8  9  1  0  0  0
  8 24  1  0  0  0
  9 10  2  0  0  0
  9 11  1  0  0  0
 11 12  2  0  0  0
 11 17  1  0  0  0
 12 13  1  0  0  0
 12 25  1  0  0  0
 13 14  2  0  0  0
 13 26  1  0  0  0
 14 15  1  0  0  0
 14 16  1  0  0  0
 15 29  1  0  0  0
 16 17  2  0  0  0
 16 27  1  0  0  0
 17 28  1  0  0  0
M  END
>  <Name>
tox-372

>  <substance>
4'-Hydroxychalcone

>  <CASRN>
2657-25-2

>  <from_NCI>
1

>  <RBA>
0.004000

>  <method>
RUC

>  <chemical_class>
Chalconoid

>  <set>
0

$$$$
tox-373
  Cerius2 12190218263D 1   1.00000                          
 Structure written by MMmdl.
 29 30  0  0  0  0  0  0  0  0999 V2000
    1.0565   -1.2871   -0.1142 C   0  0  0  0  0  0
   -0.1500   -0.4150   -0.0478 C   0  0  0  0  0  0
    0.9854   -2.5048    0.0493 O   0  0  0  0  0  0
    2.3766   -0.6395   -0.3530 C   0  0  0  0  0  0
   -1.3748   -0.9624    0.0096 C   0  0  0  0  0  0
    3.5232   -1.2492    0.1554 C   0  0  0  0  0  0
    2.5196    0.5323   -1.0932 C   0  0  0  0  0  0
   -2.6258   -0.1936    0.0989 C   0  0  0  0  0  0
    4.7877   -0.6742   -0.0584 C   0  0  0  0  0  0
    3.7960    1.0882   -1.2952 C   0  0  0  0  0  0
   -2.7854    1.0655   -0.4961 C   0  0  0  0  0  0
   -3.7215   -0.7664    0.7599 C   0  0  0  0  0  0
    4.9785    0.5154   -0.7871 C   0  0  0  0  0  0
   -4.0038    1.7458   -0.4086 C   0  0  0  0  0  0
   -4.9392   -0.0859    0.8477 C   0  0  0  0  0  0
    6.1261    1.0287   -0.9753 O   0  0  0  0  0  0
   -5.0790    1.1714    0.2654 C   0  0  0  0  0  0
    0.0008    0.6572   -0.0167 H   0  0  0  0  0  0
   -1.4896   -2.0457    0.0110 H   0  0  0  0  0  0
    3.4526   -2.1718    0.7289 H   0  0  0  0  0  0
    1.6644    1.0296   -1.5446 H   0  0  0  0  0  0
    5.6522   -1.1910    0.3689 H   0  0  0  0  0  0
    3.8530    2.0092   -1.8833 H   0  0  0  0  0  0
   -1.9703    1.5332   -1.0456 H   0  0  0  0  0  0
   -3.6370   -1.7497    1.2217 H   0  0  0  0  0  0
   -4.1130    2.7244   -0.8731 H   0  0  0  0  0  0
   -5.7789   -0.5407    1.3704 H   0  0  0  0  0  0
   -6.0275    1.7014    0.3320 H   0  0  0  0  0  0
    6.0466    1.7399   -1.4339 H   0  0  0  0  0  0
  1  2  1  0  0  0
  1  3  2  0  0  0
  1  4  1  0  0  0
  2  5  2  0  0  0
  2 18  1  0  0  0
  4  6  2  0  0  0
  4  7  1  0  0  0
  5  8  1  0  0  0
  5 19  1  0  0  0
  6  9  1  0  0  0
  6 20  1  0  0  0
  7 10  2  0  0  0
  7 21  1  0  0  0
  8 11  2  0  0  0
  8 12  1  0  0  0
  9 13  2  0  0  0
  9 22  1  0  0  0
 10 13  1  0  0  0
 10 23  1  0  0  0
 11 14  1  0  0  0
 11 24  1  0  0  0
 12 15  2  0  0  0
 12 25  1  0  0  0
 13 16  1  0  0  0
 14 17  2  0  0  0
 14 26  1  0  0  0
 15 17  1  0  0  0
 15 27  1  0  0  0
 16 29  1  0  0  0
 17 28  1  0  0  0
M  END
>  <Name>
tox-373

>  <substance>
4'-Hydroxychalcone (cis- and trans-)

>  <CASRN>
38239-52-0

>  <from_NCI>
1

>  <RBA>
0.004000

>  <method>
RUC

>  <chemical_class>
Chalconoid

>  <set>
0

$$$$
tox-374
  Cerius2 12190218263D 1   1.00000                          
 Structure written by MMmdl.
 31 34  0  0  0  0  0  0  0  0999 V2000
    0.4977   -0.3676    0.0126 C   0  0  0  0  0  0
   -0.7263    0.3631    0.0128 C   0  0  0  0  0  0
    1.7689    0.3247    0.0182 C   0  0  0  0  0  0
    0.4056   -1.7750    0.0069 C   0  0  0  0  0  0
   -1.9973   -0.3270    0.0068 C   0  0  0  0  0  0
   -0.6306    1.7700    0.0191 C   0  0  0  0  0  0
    1.7959    1.7327    0.0243 C   0  0  0  0  0  0
    3.0347   -0.3043    0.0180 C   0  0  0  0  0  0
   -0.8165   -2.4465    0.0013 C   0  0  0  0  0  0
   -2.0162   -1.7423    0.0010 C   0  0  0  0  0  0
   -3.2654    0.3142    0.0061 C   0  0  0  0  0  0
    0.5944    2.4377    0.0247 C   0  0  0  0  0  0
    3.0263    2.4366    0.0298 C   0  0  0  0  0  0
    4.2417    0.4221    0.0235 C   0  0  0  0  0  0
   -3.2304   -2.4512   -0.0049 C   0  0  0  0  0  0
   -4.4691   -0.3988    0.0001 C   0  0  0  0  0  0
    4.2911    1.8207    0.0296 C   0  0  0  0  0  0
   -4.4513   -1.7840   -0.0054 C   0  0  0  0  0  0
    5.3809    2.4752    0.0346 O   0  0  0  0  0  0
    1.2974   -2.3987    0.0066 H   0  0  0  0  0  0
   -1.5197    2.3972    0.0198 H   0  0  0  0  0  0
    3.1244   -1.3887    0.0134 H   0  0  0  0  0  0
   -0.8102   -3.5365   -0.0030 H   0  0  0  0  0  0
   -3.3454    1.3994    0.0102 H   0  0  0  0  0  0
    0.5909    3.5278    0.0294 H   0  0  0  0  0  0
    2.9867    3.5313    0.0344 H   0  0  0  0  0  0
    5.1720   -0.1536    0.0228 H   0  0  0  0  0  0
   -3.2338   -3.5415   -0.0094 H   0  0  0  0  0  0
   -5.4173    0.1361   -0.0002 H   0  0  0  0  0  0
   -5.3830   -2.3461   -0.0101 H   0  0  0  0  0  0
    6.0364    1.9341    0.0335 H   0  0  0  0  0  0
  1  2  2  0  0  0
  1  3  1  0  0  0
  1  4  1  0  0  0
  2  5  1  0  0  0
  2  6  1  0  0  0
  3  7  2  0  0  0
  3  8  1  0  0  0
  4  9  2  0  0  0
  4 20  1  0  0  0
  5 10  2  0  0  0
  5 11  1  0  0  0
  6 12  2  0  0  0
  6 21  1  0  0  0
  7 12  1  0  0  0
  7 13  1  0  0  0
  8 14  2  0  0  0
  8 22  1  0  0  0
  9 10  1  0  0  0
  9 23  1  0  0  0
 10 15  1  0  0  0
 11 16  2  0  0  0
 11 24  1  0  0  0
 12 25  1  0  0  0
 13 17  2  0  0  0
 13 26  1  0  0  0
 14 17  1  0  0  0
 14 27  1  0  0  0
 15 18  2  0  0  0
 15 28  1  0  0  0
 16 18  1  0  0  0
 16 29  1  0  0  0
 17 19  1  0  0  0
 18 30  1  0  0  0
 19 31  1  0  0  0
M  END
>  <Name>
tox-374

>  <substance>
2-Hydroxychrysene

>  <CASRN>
65945-06-4

>  <from_NCI>
1

>  <RBA>
5.800000

>  <method>
GST-hERadef

>  <chemical_class>
Polycyclic aromatic hydrocarbon

>  <set>
0

$$$$
tox-375
  Cerius2 12190218273D 1   1.00000                          
 Structure written by MMmdl.
 37 40  0  0  0  0  0  0  0  0999 V2000
   -2.1292    0.3106    1.4446 C   0  0  0  0  0  0
   -0.9420    0.4087    0.5415 C   0  0  0  0  0  0
   -0.6670   -0.8327    0.0710 C   0  0  0  0  0  0
   -1.6347   -1.7723    0.6495 C   0  0  0  0  0  0
   -1.7769   -3.1409    0.4779 C   0  0  0  0  0  0
   -2.8116   -3.7975    1.1570 C   0  0  0  0  0  0
   -3.6913   -3.0871    1.9922 C   0  0  0  0  0  0
   -3.5496   -1.7096    2.1585 C   0  0  0  0  0  0
   -2.5173   -1.0920    1.4744 C   0  0  0  0  0  0
   -2.6755    1.2137    2.0531 O   0  0  0  0  0  0
    0.4252   -1.1484   -0.8617 C   0  0  0  0  0  0
    0.4228   -0.6408   -2.1682 C   0  0  0  0  0  0
    1.4628   -0.9502   -3.0483 C   0  0  0  0  0  0
    2.5029   -1.7695   -2.6242 C   0  0  0  0  0  0
    2.5208   -2.2867   -1.3334 C   0  0  0  0  0  0
    1.4801   -1.9766   -0.4532 C   0  0  0  0  0  0
   -0.2493    1.6696    0.2594 C   0  0  0  0  0  0
   -0.9486    2.7476   -0.2998 C   0  0  0  0  0  0
   -0.2957    3.9521   -0.5730 C   0  0  0  0  0  0
    1.0608    4.0916   -0.2865 C   0  0  0  0  0  0
    1.7654    3.0287    0.2750 C   0  0  0  0  0  0
    1.1137    1.8237    0.5486 C   0  0  0  0  0  0
    3.4998   -2.0499   -3.5115 O   0  0  0  0  0  0
   -1.1080   -3.7029   -0.1683 H   0  0  0  0  0  0
   -2.9378   -4.8729    1.0353 H   0  0  0  0  0  0
   -4.4893   -3.6175    2.5101 H   0  0  0  0  0  0
   -4.2219   -1.1458    2.7969 H   0  0  0  0  0  0
   -0.3886   -0.0018   -2.5131 H   0  0  0  0  0  0
    1.4537   -0.5503   -4.0595 H   0  0  0  0  0  0
    3.3304   -2.9287   -0.9946 H   0  0  0  0  0  0
    1.5040   -2.3835    0.5568 H   0  0  0  0  0  0
   -2.0089    2.6586   -0.5331 H   0  0  0  0  0  0
   -0.8478    4.7822   -1.0104 H   0  0  0  0  0  0
    1.5691    5.0304   -0.4996 H   0  0  0  0  0  0
    2.8246    3.1368    0.5019 H   0  0  0  0  0  0
    1.6822    1.0078    0.9928 H   0  0  0  0  0  0
    4.1526   -2.6333   -3.0688 H   0  0  0  0  0  0
  1  2  1  0  0  0
  1  9  1  0  0  0
  1 10  2  0  0  0
  2  3  2  0  0  0
  2 17  1  0  0  0
  3  4  1  0  0  0
  3 11  1  0  0  0
  4  5  2  0  0  0
  4  9  1  0  0  0
  5  6  1  0  0  0
  5 24  1  0  0  0
  6  7  2  0  0  0
  6 25  1  0  0  0
  7  8  1  0  0  0
  7 26  1  0  0  0
  8  9  2  0  0  0
  8 27  1  0  0  0
 11 12  2  0  0  0
 11 16  1  0  0  0
 12 13  1  0  0  0
 12 28  1  0  0  0
 13 14  2  0  0  0
 13 29  1  0  0  0
 14 15  1  0  0  0
 14 23  1  0  0  0
 15 16  2  0  0  0
 15 30  1  0  0  0
 16 31  1  0  0  0
 17 18  2  0  0  0
 17 22  1  0  0  0
 18 19  1  0  0  0
 18 32  1  0  0  0
 19 20  2  0  0  0
 19 33  1  0  0  0
 20 21  1  0  0  0
 20 34  1  0  0  0
 21 22  2  0  0  0
 21 35  1  0  0  0
 22 36  1  0  0  0
 23 37  1  0  0  0
M  END
>  <Name>
tox-375

>  <substance>
4'-Hydroxy-2,3-diphenylindenone-1

>  <CASRN>


>  <from_NCI>
0

>  <RBA>
0.500000

>  <method>
RUC

>  <chemical_class>
Triphenylethylene

>  <set>
0

$$$$
tox-376
  Cerius2 12190218273D 1   1.00000                          
 Structure written by MMmdl.
 37 40  0  0  0  0  0  0  0  0999 V2000
   -1.6954    0.2775    1.4828 C   0  0  0  0  0  0
   -0.5308    0.3584    0.5498 C   0  0  0  0  0  0
   -0.3324   -0.8728    0.0194 C   0  0  0  0  0  0
   -1.3311   -1.7886    0.5801 C   0  0  0  0  0  0
   -1.5455   -3.1388    0.3504 C   0  0  0  0  0  0
   -2.5961   -3.7738    1.0253 C   0  0  0  0  0  0
   -3.4184   -3.0598    1.9147 C   0  0  0  0  0  0
   -3.2018   -1.7005    2.1411 C   0  0  0  0  0  0
   -2.1557   -1.1038    1.4592 C   0  0  0  0  0  0
   -2.1777    1.1779    2.1469 O   0  0  0  0  0  0
    0.7091   -1.1943   -0.9689 C   0  0  0  0  0  0
    0.5658   -0.7482   -2.2911 C   0  0  0  0  0  0
    1.5383   -1.0449   -3.2486 C   0  0  0  0  0  0
    2.6615   -1.7910   -2.8950 C   0  0  0  0  0  0
    2.8172   -2.2426   -1.5840 C   0  0  0  0  0  0
    1.8446   -1.9446   -0.6288 C   0  0  0  0  0  0
    0.2105    1.5951    0.2879 C   0  0  0  0  0  0
   -0.4534    2.7197   -0.2203 C   0  0  0  0  0  0
    0.2463    3.9017   -0.4756 C   0  0  0  0  0  0
    1.6148    3.9716   -0.2222 C   0  0  0  0  0  0
    2.2846    2.8616    0.2886 C   0  0  0  0  0  0
    1.5859    1.6793    0.5445 C   0  0  0  0  0  0
    2.0067   -2.3805    0.6594 O   0  0  0  0  0  0
   -0.9174   -3.7015   -0.3351 H   0  0  0  0  0  0
   -2.7795   -4.8349    0.8589 H   0  0  0  0  0  0
   -4.2301   -3.5732    2.4283 H   0  0  0  0  0  0
   -3.8287   -1.1345    2.8224 H   0  0  0  0  0  0
   -0.3062   -0.1664   -2.5867 H   0  0  0  0  0  0
    1.4182   -0.6935   -4.2719 H   0  0  0  0  0  0
    3.4187   -2.0213   -3.6426 H   0  0  0  0  0  0
    3.7008   -2.8218   -1.3253 H   0  0  0  0  0  0
   -1.5223    2.6852   -0.4273 H   0  0  0  0  0  0
   -0.2786    4.7685   -0.8732 H   0  0  0  0  0  0
    2.1596    4.8927   -0.4215 H   0  0  0  0  0  0
    3.3530    2.9153    0.4899 H   0  0  0  0  0  0
    2.1272    0.8256    0.9501 H   0  0  0  0  0  0
    2.8439   -2.8867    0.7148 H   0  0  0  0  0  0
  1  2  1  0  0  0
  1  9  1  0  0  0
  1 10  2  0  0  0
  2  3  2  0  0  0
  2 17  1  0  0  0
  3  4  1  0  0  0
  3 11  1  0  0  0
  4  5  2  0  0  0
  4  9  1  0  0  0
  5  6  1  0  0  0
  5 24  1  0  0  0
  6  7  2  0  0  0
  6 25  1  0  0  0
  7  8  1  0  0  0
  7 26  1  0  0  0
  8  9  2  0  0  0
  8 27  1  0  0  0
 11 12  2  0  0  0
 11 16  1  0  0  0
 12 13  1  0  0  0
 12 28  1  0  0  0
 13 14  2  0  0  0
 13 29  1  0  0  0
 14 15  1  0  0  0
 14 30  1  0  0  0
 15 16  2  0  0  0
 15 31  1  0  0  0
 16 23  1  0  0  0
 17 18  2  0  0  0
 17 22  1  0  0  0
 18 19  1  0  0  0
 18 32  1  0  0  0
 19 20  2  0  0  0
 19 33  1  0  0  0
 20 21  1  0  0  0
 20 34  1  0  0  0
 21 22  2  0  0  0
 21 35  1  0  0  0
 22 36  1  0  0  0
 23 37  1  0  0  0
M  END
>  <Name>
tox-376

>  <substance>
6'-Hydroxy-2,3-diphenylindenone-1

>  <CASRN>


>  <from_NCI>
0

>  <RBA>
59.000000

>  <method>
RUC

>  <chemical_class>
Triphenylethylene

>  <set>
0

$$$$
tox-377
  Cerius2 12190218273D 1   1.00000                          
 Structure written by MMmdl.
 45 48  0  0  0  0  0  0  0  0999 V2000
   -4.2064   -1.4788   -0.3724 C   0  0  0  0  0  0
   -5.4174   -2.1041   -0.3726 O   0  0  0  0  0  0
   -4.1057   -0.2480    0.2527 C   0  0  0  0  0  0
   -2.8784    0.4214    0.2740 C   0  0  0  0  0  0
   -3.0964   -2.0509   -0.9780 C   0  0  0  0  0  0
   -1.8562   -1.3827   -0.9658 C   0  0  0  0  0  0
   -0.6838   -2.0929   -1.6025 C   0  0  0  0  0  0
    0.5746   -1.2433   -1.7303 C   0  0  0  0  0  0
    0.7805   -0.4078   -0.4629 C   0  0  0  0  0  0
    2.1228    0.3217   -0.4730 C   0  0  0  0  0  0
    3.4038   -0.5001   -0.6073 C   0  0  0  0  0  0
    4.5050    0.4206   -0.0539 C   0  0  0  0  0  0
    3.7840    1.6442    0.5396 C   0  0  0  0  0  0
    4.4620    2.1171    1.6930 O   0  0  0  0  0  0
    2.3527    1.1370    0.8130 C   0  0  0  0  0  0
    2.3069    0.3137    2.1238 C   0  0  0  0  0  0
    1.2861    2.2311    0.8581 C   0  0  0  0  0  0
   -0.1494    1.6662    0.7945 C   0  0  0  0  0  0
   -0.3874    0.6243   -0.3525 C   0  0  0  0  0  0
   -1.7289   -0.1294   -0.3207 C   0  0  0  0  0  0
   -1.0068    2.8135    0.6431 O   0  0  0  0  0  0
   -5.3261   -2.9561   -0.8504 H   0  0  0  0  0  0
   -4.9757    0.2033    0.7246 H   0  0  0  0  0  0
   -2.8532    1.3891    0.7686 H   0  0  0  0  0  0
   -3.1767   -3.0227   -1.4627 H   0  0  0  0  0  0
   -0.9667   -2.4571   -2.5976 H   0  0  0  0  0  0
   -0.4530   -2.9708   -0.9851 H   0  0  0  0  0  0
    0.4905   -0.5837   -2.6038 H   0  0  0  0  0  0
    1.4272   -1.9055   -1.9170 H   0  0  0  0  0  0
    0.7487   -1.0924    0.3948 H   0  0  0  0  0  0
    2.1082    1.0128   -1.3323 H   0  0  0  0  0  0
    3.6049   -0.7776   -1.6470 H   0  0  0  0  0  0
    3.3510   -1.4248   -0.0217 H   0  0  0  0  0  0
    5.1880    0.7356   -0.8508 H   0  0  0  0  0  0
    5.1108   -0.1038    0.6938 H   0  0  0  0  0  0
    3.7802    2.4521   -0.2032 H   0  0  0  0  0  0
    3.9491    2.8866    2.0179 H   0  0  0  0  0  0
    2.4939    0.9588    2.9901 H   0  0  0  0  0  0
    3.0603   -0.4800    2.1443 H   0  0  0  0  0  0
    1.3367   -0.1621    2.2902 H   0  0  0  0  0  0
    1.4295    2.9291    0.0213 H   0  0  0  0  0  0
    1.3964    2.8481    1.7594 H   0  0  0  0  0  0
   -0.4044    1.2127    1.7588 H   0  0  0  0  0  0
   -0.4213    1.2017   -1.2895 H   0  0  0  0  0  0
   -0.8429    3.1745   -0.2535 H   0  0  0  0  0  0
  1  2  1  0  0  0
  1  3  2  0  0  0
  1  5  1  0  0  0
  2 22  1  0  0  0
  3  4  1  0  0  0
  3 23  1  0  0  0
  4 20  2  0  0  0
  4 24  1  0  0  0
  5  6  2  0  0  0
  5 25  1  0  0  0
  6  7  1  0  0  0
  6 20  1  0  0  0
  7  8  1  0  0  0
  7 26  1  0  0  0
  7 27  1  0  0  0
  8  9  1  0  0  0
  8 28  1  0  0  0
  8 29  1  0  0  0
  9 10  1  0  0  0
  9 19  1  0  0  0
  9 30  1  0  0  0
 10 11  1  0  0  0
 10 15  1  0  0  0
 10 31  1  0  0  0
 11 12  1  0  0  0
 11 32  1  0  0  0
 11 33  1  0  0  0
 12 13  1  0  0  0
 12 34  1  0  0  0
 12 35  1  0  0  0
 13 14  1  0  0  0
 13 15  1  0  0  0
 13 36  1  0  0  0
 14 37  1  0  0  0
 15 16  1  0  0  0
 15 17  1  0  0  0
 16 38  1  0  0  0
 16 39  1  0  0  0
 16 40  1  0  0  0
 17 18  1  0  0  0
 17 41  1  0  0  0
 17 42  1  0  0  0
 18 19  1  0  0  0
 18 21  1  0  0  0
 18 43  1  0  0  0
 19 20  1  0  0  0
 19 44  1  0  0  0
 21 45  1  0  0  0
M  END
>  <Name>
tox-377

>  <substance>
11a-Hydroxyestradiol

>  <CASRN>
1464-61-5

>  <from_NCI>
0

>  <RBA>
3.100000

>  <method>
MCF-7 cytosol

>  <chemical_class>
Steroid, phenolic

>  <set>
0

$$$$
tox-378
  Cerius2 12190218273D 1   1.00000                          
 Structure written by MMmdl.
 45 48  0  0  0  0  0  0  0  0999 V2000
   -0.2284    2.4617    0.7376 O   0  0  0  0  0  0
   -0.6647    2.0254   -0.4380 C   0  0  0  0  0  0
   -0.9708    0.4609   -0.4290 C   0  0  0  0  0  0
    0.3973    2.3928   -1.5427 C   0  0  0  0  0  0
    0.3206   -0.4241   -0.4934 C   0  0  0  0  0  0
   -2.0140   -0.0668    0.5673 C   0  0  0  0  0  0
    1.6322    1.4512   -1.6811 C   0  0  0  0  0  0
    1.1105   -0.0099   -1.7401 C   0  0  0  0  0  0
   -0.0640   -1.9079   -0.5291 C   0  0  0  0  0  0
   -1.9411   -1.3706    1.0813 C   0  0  0  0  0  0
   -3.1387    0.6929    0.9101 C   0  0  0  0  0  0
    2.3396    1.4989   -3.0992 C   0  0  0  0  0  0
    2.3347   -0.8154   -2.1647 C   0  0  0  0  0  0
   -0.7914   -2.2924    0.7546 C   0  0  0  0  0  0
   -2.9451   -1.8412    1.9642 C   0  0  0  0  0  0
   -4.1273    0.1924    1.7774 C   0  0  0  0  0  0
    3.2108    2.4829   -3.2487 O   0  0  0  0  0  0
    3.0842    0.1252   -3.1362 C   0  0  0  0  0  0
   -4.0720   -1.0893    2.3472 C   0  0  0  0  0  0
   -4.9644   -1.5344    3.1362 O   0  0  0  0  0  0
    2.6415    1.6821   -0.5119 C   0  0  0  0  0  0
   -1.5915    2.4821   -0.8214 H   0  0  0  0  0  0
   -1.4776    0.2900   -1.3955 H   0  0  0  0  0  0
    0.7319    3.4348   -1.4358 H   0  0  0  0  0  0
   -0.1407    2.3651   -2.5023 H   0  0  0  0  0  0
    0.9204   -0.2675    0.4104 H   0  0  0  0  0  0
    0.4057   -0.0889   -2.5853 H   0  0  0  0  0  0
    0.8258   -2.5394   -0.6299 H   0  0  0  0  0  0
   -0.7032   -2.1110   -1.3981 H   0  0  0  0  0  0
   -3.2692    1.6971    0.5098 H   0  0  0  0  0  0
    1.5314    1.4091   -3.8436 H   0  0  0  0  0  0
    2.0576   -1.7514   -2.6604 H   0  0  0  0  0  0
    2.9692   -1.0676   -1.3080 H   0  0  0  0  0  0
   -0.0885   -2.2748    1.5968 H   0  0  0  0  0  0
   -1.1567   -3.3213    0.6508 H   0  0  0  0  0  0
   -2.8334   -2.8553    2.3621 H   0  0  0  0  0  0
   -4.9711    0.8500    2.0059 H   0  0  0  0  0  0
    4.1393    0.1871   -2.8371 H   0  0  0  0  0  0
    3.0697   -0.2841   -4.1543 H   0  0  0  0  0  0
    3.5646    1.1063   -0.6312 H   0  0  0  0  0  0
    2.2318    1.4121    0.4632 H   0  0  0  0  0  0
    2.9259    2.7393   -0.4552 H   0  0  0  0  0  0
   -0.0773    3.2969    0.6915 H   0  0  0  0  0  0
    3.5485    2.4464   -4.0279 H   0  0  0  0  0  0
   -5.5633   -0.9420    3.2497 H   0  0  0  0  0  0
  1  2  1  0  0  0
  1 43  1  0  0  0
  2  3  1  0  0  0
  2  4  1  0  0  0
  2 22  1  0  0  0
  3  5  1  0  0  0
  3  6  1  0  0  0
  3 23  1  0  0  0
  4  7  1  0  0  0
  4 24  1  0  0  0
  4 25  1  0  0  0
  5  8  1  0  0  0
  5  9  1  0  0  0
  5 26  1  0  0  0
  6 10  2  0  0  0
  6 11  1  0  0  0
  7  8  1  0  0  0
  7 12  1  0  0  0
  7 21  1  0  0  0
  8 13  1  0  0  0
  8 27  1  0  0  0
  9 14  1  0  0  0
  9 28  1  0  0  0
  9 29  1  0  0  0
 10 14  1  0  0  0
 10 15  1  0  0  0
 11 16  2  0  0  0
 11 30  1  0  0  0
 12 17  1  0  0  0
 12 18  1  0  0  0
 12 31  1  0  0  0
 13 18  1  0  0  0
 13 32  1  0  0  0
 13 33  1  0  0  0
 14 34  1  0  0  0
 14 35  1  0  0  0
 15 19  2  0  0  0
 15 36  1  0  0  0
 16 19  1  0  0  0
 16 37  1  0  0  0
 17 44  1  0  0  0
 18 38  1  0  0  0
 18 39  1  0  0  0
 19 20  1  0  0  0
 20 45  1  0  0  0
 21 40  1  0  0  0
 21 41  1  0  0  0
 21 42  1  0  0  0
M  END
>  <Name>
tox-378

>  <substance>
11b-Hydroxyestradiol

>  <CASRN>
5444-22-4

>  <from_NCI>
1

>  <RBA>
7.200000

>  <method>
MCF-7 cytosol,MCF-7 cytosol,RBC,RUC

>  <chemical_class>
Steroid, phenolic

>  <set>
0

$$$$
tox-379
  Cerius2 12190218273D 1   1.00000                          
 Structure written by MMmdl.
 45 48  0  0  0  0  0  0  0  0999 V2000
   -5.3324   -4.2327   16.6478 C   0  0  0  0  0  0
   -4.5704   -4.0165   17.7572 O   0  0  0  0  0  0
   -6.7105   -4.2064   16.7864 C   0  0  0  0  0  0
   -7.5227   -4.4191   15.6696 C   0  0  0  0  0  0
   -4.7536   -4.4810   15.4100 C   0  0  0  0  0  0
   -5.5634   -4.7071   14.2812 C   0  0  0  0  0  0
   -4.8751   -4.9656   12.9622 C   0  0  0  0  0  0
   -5.8018   -5.5328   11.8924 C   0  0  0  0  0  0
   -7.1055   -4.7217   11.8484 C   0  0  0  0  0  0
   -7.9618   -5.0343   10.6003 C   0  0  0  0  0  0
   -8.3342   -6.5192   10.4182 C   0  0  0  0  0  0
   -9.6918   -6.5392    9.6965 C   0  0  0  0  0  0
  -10.1010   -5.0764    9.5016 C   0  0  0  0  0  0
   -9.6751   -4.6935    8.1880 O   0  0  0  0  0  0
   -9.3298   -4.2965   10.5961 C   0  0  0  0  0  0
   -9.2095   -2.7976   10.2583 C   0  0  0  0  0  0
  -10.0462   -4.4538   11.9598 C   0  0  0  0  0  0
   -9.1670   -4.0892   13.1573 C   0  0  0  0  0  0
   -7.8673   -4.9163   13.1853 C   0  0  0  0  0  0
   -6.9698   -4.6449   14.3954 C   0  0  0  0  0  0
   -7.1842   -4.6508    9.4463 O   0  0  0  0  0  0
   -3.6254   -4.0673   17.4986 H   0  0  0  0  0  0
   -7.1634   -4.0265   17.7588 H   0  0  0  0  0  0
   -8.5996   -4.4134   15.8243 H   0  0  0  0  0  0
   -3.6700   -4.5070   15.3069 H   0  0  0  0  0  0
   -4.0416   -5.6633   13.1084 H   0  0  0  0  0  0
   -4.4526   -4.0164   12.6089 H   0  0  0  0  0  0
   -6.0187   -6.5861   12.1114 H   0  0  0  0  0  0
   -5.2823   -5.5083   10.9279 H   0  0  0  0  0  0
   -6.8103   -3.6635   11.7712 H   0  0  0  0  0  0
   -8.4399   -7.0454   11.3719 H   0  0  0  0  0  0
   -7.5845   -7.0571    9.8269 H   0  0  0  0  0  0
  -10.4235   -7.0618   10.3231 H   0  0  0  0  0  0
   -9.6194   -7.0807    8.7471 H   0  0  0  0  0  0
  -11.1876   -4.9516    9.5595 H   0  0  0  0  0  0
  -10.1127   -5.3144    7.5671 H   0  0  0  0  0  0
  -10.2013   -2.3354   10.1991 H   0  0  0  0  0  0
   -8.7130   -2.6210    9.2987 H   0  0  0  0  0  0
   -8.6347   -2.2552   11.0151 H   0  0  0  0  0  0
  -10.3938   -5.4847   12.1015 H   0  0  0  0  0  0
  -10.9522   -3.8345   11.9774 H   0  0  0  0  0  0
   -9.7639   -4.2695   14.0578 H   0  0  0  0  0  0
   -8.9351   -3.0175   13.1532 H   0  0  0  0  0  0
   -8.1507   -5.9737   13.2792 H   0  0  0  0  0  0
   -7.7873   -4.7179    8.6711 H   0  0  0  0  0  0
  1  2  1  0  0  0
  1  3  2  0  0  0
  1  5  1  0  0  0
  2 22  1  0  0  0
  3  4  1  0  0  0
  3 23  1  0  0  0
  4 20  2  0  0  0
  4 24  1  0  0  0
  5  6  2  0  0  0
  5 25  1  0  0  0
  6  7  1  0  0  0
  6 20  1  0  0  0
  7  8  1  0  0  0
  7 26  1  0  0  0
  7 27  1  0  0  0
  8  9  1  0  0  0
  8 28  1  0  0  0
  8 29  1  0  0  0
  9 10  1  0  0  0
  9 19  1  0  0  0
  9 30  1  0  0  0
 10 11  1  0  0  0
 10 15  1  0  0  0
 10 21  1  0  0  0
 11 12  1  0  0  0
 11 31  1  0  0  0
 11 32  1  0  0  0
 12 13  1  0  0  0
 12 33  1  0  0  0
 12 34  1  0  0  0
 13 14  1  0  0  0
 13 15  1  0  0  0
 13 35  1  0  0  0
 14 36  1  0  0  0
 15 16  1  0  0  0
 15 17  1  0  0  0
 16 37  1  0  0  0
 16 38  1  0  0  0
 16 39  1  0  0  0
 17 18  1  0  0  0
 17 40  1  0  0  0
 17 41  1  0  0  0
 18 19  1  0  0  0
 18 42  1  0  0  0
 18 43  1  0  0  0
 19 20  1  0  0  0
 19 44  1  0  0  0
 21 45  1  0  0  0
M  END
>  <Name>
tox-379

>  <substance>
14b-Hydroxyestradiol

>  <CASRN>
60183-66-6

>  <from_NCI>
0

>  <RBA>
10.000000

>  <method>
MCF-7 cytosol

>  <chemical_class>
Steroid, phenolic

>  <set>
0

$$$$
tox-380
  Cerius2 12190218273D 1   1.00000                          
 Structure written by MMmdl.
 45 48  0  0  0  0  0  0  0  0999 V2000
   -7.8513   -4.8662   13.1050 C   0  0  0  0  0  0
   -7.0176   -4.7250   11.7947 C   0  0  0  0  0  0
   -6.9888   -4.6186   14.3430 C   0  0  0  0  0  0
   -9.1524   -4.0257   13.0260 C   0  0  0  0  0  0
   -7.9020   -5.0878   10.5964 C   0  0  0  0  0  0
   -5.7743   -5.6135   11.8963 C   0  0  0  0  0  0
   -5.6049   -4.7780   14.2940 C   0  0  0  0  0  0
   -7.5567   -4.3169   15.5969 C   0  0  0  0  0  0
   -9.9781   -4.2923   11.7508 C   0  0  0  0  0  0
   -9.1376   -4.1615   10.4607 C   0  0  0  0  0  0
   -7.2836   -5.0580    9.2049 C   0  0  0  0  0  0
   -4.8686   -5.1120   13.0182 C   0  0  0  0  0  0
   -4.8515   -4.5734   15.4668 C   0  0  0  0  0  0
   -6.8265   -4.1150   16.8082 C   0  0  0  0  0  0
   -9.7693   -4.6249    9.0852 C   0  0  0  0  0  0
   -8.4963   -5.0061    8.2498 C   0  0  0  0  0  0
   -5.3980   -4.2429   16.7369 C   0  0  0  0  0  0
   -7.4671   -3.8368   17.8819 O   0  0  0  0  0  0
  -10.5320   -5.7052    9.1881 O   0  0  0  0  0  0
   -4.6102   -4.0834   17.7334 O   0  0  0  0  0  0
   -8.7553   -2.6536   10.2967 C   0  0  0  0  0  0
   -8.1658   -5.9183   13.1860 H   0  0  0  0  0  0
   -6.6692   -3.6893   11.6922 H   0  0  0  0  0  0
   -8.9129   -2.9589   13.1072 H   0  0  0  0  0  0
   -9.8032   -4.2539   13.8778 H   0  0  0  0  0  0
   -8.2521   -6.1193   10.7613 H   0  0  0  0  0  0
   -5.2070   -5.6135   10.9592 H   0  0  0  0  0  0
   -6.0704   -6.6524   12.0912 H   0  0  0  0  0  0
   -8.6456   -4.2370   15.6610 H   0  0  0  0  0  0
  -10.8360   -3.6097   11.7203 H   0  0  0  0  0  0
  -10.3912   -5.3054   11.8343 H   0  0  0  0  0  0
   -6.6703   -5.9436    9.0096 H   0  0  0  0  0  0
   -6.6456   -4.1785    9.0643 H   0  0  0  0  0  0
   -4.3502   -4.2049   12.6818 H   0  0  0  0  0  0
   -4.1048   -5.8731   13.2184 H   0  0  0  0  0  0
   -3.7637   -4.6818   15.3854 H   0  0  0  0  0  0
  -10.2017   -3.7357    8.6032 H   0  0  0  0  0  0
   -8.5959   -5.9567    7.7084 H   0  0  0  0  0  0
   -8.3099   -4.2401    7.4856 H   0  0  0  0  0  0
   -9.6627   -2.0447   10.2040 H   0  0  0  0  0  0
   -8.1558   -2.4701    9.3993 H   0  0  0  0  0  0
   -8.1910   -2.2567   11.1437 H   0  0  0  0  0  0
   -6.9175   -3.7425   18.5234 H   0  0  0  0  0  0
  -10.8425   -5.9067    8.4229 H   0  0  0  0  0  0
   -3.8071   -4.2023   17.4816 H   0  0  0  0  0  0
  1  2  1  0  0  0
  1  3  1  0  0  0
  1  4  1  0  0  0
  1 22  1  0  0  0
  2  5  1  0  0  0
  2  6  1  0  0  0
  2 23  1  0  0  0
  3  7  2  0  0  0
  3  8  1  0  0  0
  4  9  1  0  0  0
  4 24  1  0  0  0
  4 25  1  0  0  0
  5 10  1  0  0  0
  5 11  1  0  0  0
  5 26  1  0  0  0
  6 12  1  0  0  0
  6 27  1  0  0  0
  6 28  1  0  0  0
  7 12  1  0  0  0
  7 13  1  0  0  0
  8 14  2  0  0  0
  8 29  1  0  0  0
  9 10  1  0  0  0
  9 30  1  0  0  0
  9 31  1  0  0  0
 10 15  1  0  0  0
 10 21  1  0  0  0
 11 16  1  0  0  0
 11 32  1  0  0  0
 11 33  1  0  0  0
 12 34  1  0  0  0
 12 35  1  0  0  0
 13 17  2  0  0  0
 13 36  1  0  0  0
 14 17  1  0  0  0
 14 18  1  0  0  0
 15 16  1  0  0  0
 15 19  1  0  0  0
 15 37  1  0  0  0
 16 38  1  0  0  0
 16 39  1  0  0  0
 17 20  1  0  0  0
 18 43  1  0  0  0
 19 44  1  0  0  0
 20 45  1  0  0  0
 21 40  1  0  0  0
 21 41  1  0  0  0
 21 42  1  0  0  0
M  END
>  <Name>
tox-380

>  <substance>
2-Hydroxyestradiol

>  <CASRN>
362-05-0

>  <from_NCI>
1

>  <RBA>
7.000000

>  <method>
hERa

>  <chemical_class>
Steroid, phenolic

>  <set>
1

$$$$
tox-381
  Cerius2 12190218273D 1   1.00000                          
 Structure written by MMmdl.
 45 48  0  0  0  0  0  0  0  0999 V2000
   -7.8533   -4.8795   13.0991 C   0  0  0  0  0  0
   -7.0170   -4.7318   11.7933 C   0  0  0  0  0  0
   -6.9942   -4.6275   14.3399 C   0  0  0  0  0  0
   -9.1597   -4.0448   13.0233 C   0  0  0  0  0  0
   -7.9053   -5.0718   10.5944 C   0  0  0  0  0  0
   -5.7895   -5.6387   11.8884 C   0  0  0  0  0  0
   -5.5903   -4.8003   14.2901 C   0  0  0  0  0  0
   -7.5896   -4.3013   15.5763 C   0  0  0  0  0  0
   -9.9712   -4.2885   11.7360 C   0  0  0  0  0  0
   -9.1135   -4.1189   10.4739 C   0  0  0  0  0  0
   -7.2940   -5.0534    9.1971 C   0  0  0  0  0  0
   -4.8726   -5.1574   13.0088 C   0  0  0  0  0  0
   -4.8381   -4.5846   15.4545 C   0  0  0  0  0  0
   -6.8237   -4.1018   16.7289 C   0  0  0  0  0  0
   -9.7278   -4.6131    9.1457 C   0  0  0  0  0  0
   -8.5049   -4.9146    8.2530 C   0  0  0  0  0  0
   -5.4484   -4.2398   16.6586 C   0  0  0  0  0  0
  -10.4745   -5.8175    9.3337 O   0  0  0  0  0  0
   -4.6524   -4.0496   17.7537 O   0  0  0  0  0  0
   -8.7349   -2.6248   10.3034 C   0  0  0  0  0  0
   -3.4732   -4.7123   15.4178 O   0  0  0  0  0  0
   -8.1640   -5.9328   13.1786 H   0  0  0  0  0  0
   -6.6579   -3.6985   11.7009 H   0  0  0  0  0  0
   -8.9264   -2.9783   13.1248 H   0  0  0  0  0  0
   -9.8166   -4.2931   13.8650 H   0  0  0  0  0  0
   -8.2772   -6.0972   10.7530 H   0  0  0  0  0  0
   -5.2249   -5.6447   10.9494 H   0  0  0  0  0  0
   -6.1006   -6.6740   12.0794 H   0  0  0  0  0  0
   -8.6692   -4.2015   15.6709 H   0  0  0  0  0  0
  -10.8316   -3.6091   11.7096 H   0  0  0  0  0  0
  -10.3825   -5.3045   11.7861 H   0  0  0  0  0  0
   -6.7321   -5.9689    8.9852 H   0  0  0  0  0  0
   -6.6082   -4.2087    9.0676 H   0  0  0  0  0  0
   -4.3323   -4.2652   12.6670 H   0  0  0  0  0  0
   -4.1294   -5.9404   13.2022 H   0  0  0  0  0  0
   -7.3196   -3.8446   17.6616 H   0  0  0  0  0  0
  -10.3976   -3.8772    8.6887 H   0  0  0  0  0  0
   -8.6427   -5.8285    7.6651 H   0  0  0  0  0  0
   -8.3227   -4.0894    7.5557 H   0  0  0  0  0  0
  -10.8145   -6.0692    8.4490 H   0  0  0  0  0  0
   -3.7209   -4.1961   17.4829 H   0  0  0  0  0  0
   -9.6406   -2.0191   10.1798 H   0  0  0  0  0  0
   -8.1098   -2.4454    9.4231 H   0  0  0  0  0  0
   -8.1952   -2.2207   11.1637 H   0  0  0  0  0  0
   -3.2601   -4.9561   14.4881 H   0  0  0  0  0  0
  1  2  1  0  0  0
  1  3  1  0  0  0
  1  4  1  0  0  0
  1 22  1  0  0  0
  2  5  1  0  0  0
  2  6  1  0  0  0
  2 23  1  0  0  0
  3  7  2  0  0  0
  3  8  1  0  0  0
  4  9  1  0  0  0
  4 24  1  0  0  0
  4 25  1  0  0  0
  5 10  1  0  0  0
  5 11  1  0  0  0
  5 26  1  0  0  0
  6 12  1  0  0  0
  6 27  1  0  0  0
  6 28  1  0  0  0
  7 12  1  0  0  0
  7 13  1  0  0  0
  8 14  2  0  0  0
  8 29  1  0  0  0
  9 10  1  0  0  0
  9 30  1  0  0  0
  9 31  1  0  0  0
 10 15  1  0  0  0
 10 20  1  0  0  0
 11 16  1  0  0  0
 11 32  1  0  0  0
 11 33  1  0  0  0
 12 34  1  0  0  0
 12 35  1  0  0  0
 13 17  2  0  0  0
 13 21  1  0  0  0
 14 17  1  0  0  0
 14 36  1  0  0  0
 15 16  1  0  0  0
 15 18  1  0  0  0
 15 37  1  0  0  0
 16 38  1  0  0  0
 16 39  1  0  0  0
 17 19  1  0  0  0
 18 40  1  0  0  0
 19 41  1  0  0  0
 20 42  1  0  0  0
 20 43  1  0  0  0
 20 44  1  0  0  0
 21 45  1  0  0  0
M  END
>  <Name>
tox-381

>  <substance>
4-Hydroxyestradiol

>  <CASRN>
5976-61-4

>  <from_NCI>
1

>  <RBA>
13.000000

>  <method>
hERa

>  <chemical_class>
Steroid, phenolic

>  <set>
0

$$$$
tox-382
  Cerius2 12190218273D 1   1.00000                          
 Structure written by MMmdl.
 44 47  0  0  0  0  0  0  0  0999 V2000
   -4.1899   -0.6566   -0.2627 C   0  0  0  0  0  0
   -3.9848   -1.8730   -0.9312 C   0  0  0  0  0  0
   -2.7273   -2.2839   -1.3941 C   0  0  0  0  0  0
   -3.0215    0.1174   -0.0817 C   0  0  0  0  0  0
   -1.7279   -0.2704   -0.5115 C   0  0  0  0  0  0
   -1.5957   -1.4844   -1.2051 C   0  0  0  0  0  0
   -0.2686   -1.9931   -1.7136 C   0  0  0  0  0  0
    0.8323   -0.9365   -1.7322 C   0  0  0  0  0  0
   -0.5181    0.6476   -0.3204 C   0  0  0  0  0  0
    0.8186   -0.1493   -0.4193 C   0  0  0  0  0  0
    0.7060    2.4092    1.1287 C   0  0  0  0  0  0
   -0.5478    1.5289    0.9559 C   0  0  0  0  0  0
    2.0146    1.5981    1.0415 C   0  0  0  0  0  0
    1.9872    0.8332   -0.3112 C   0  0  0  0  0  0
    3.4122    0.3081   -0.4568 C   0  0  0  0  0  0
    4.2900    1.3996    0.1955 C   0  0  0  0  0  0
    3.3168    2.4547    0.8080 C   0  0  0  0  0  0
    3.8448    2.9628    1.9086 O   0  0  0  0  0  0
    2.1105    0.6427    2.2714 C   0  0  0  0  0  0
   -5.3350   -0.2805    0.1440 O   0  0  0  0  0  0
   -4.8312   -2.5411   -1.1140 H   0  0  0  0  0  0
   -2.6442   -3.2408   -1.9093 H   0  0  0  0  0  0
   -3.1369    1.0823    0.4177 H   0  0  0  0  0  0
   -0.3880   -2.3932   -2.7278 H   0  0  0  0  0  0
    0.0433   -2.8232   -1.0669 H   0  0  0  0  0  0
    0.6830   -0.2559   -2.5804 H   0  0  0  0  0  0
    1.7959   -1.4340   -1.8881 H   0  0  0  0  0  0
   -0.5546    1.3414   -1.1747 H   0  0  0  0  0  0
    0.8743   -0.8789    0.3983 H   0  0  0  0  0  0
    0.6489    2.9401    2.0866 H   0  0  0  0  0  0
    0.6954    3.1812    0.3481 H   0  0  0  0  0  0
   -0.6885    0.8970    1.8409 H   0  0  0  0  0  0
   -1.4085    2.2069    0.9276 H   0  0  0  0  0  0
    1.8516    1.5673   -1.1232 H   0  0  0  0  0  0
    3.6860    0.1580   -1.5062 H   0  0  0  0  0  0
    3.5449   -0.6483    0.0610 H   0  0  0  0  0  0
    4.9383    1.8710   -0.5539 H   0  0  0  0  0  0
    4.9532    0.9322    0.9362 H   0  0  0  0  0  0
    3.0807    3.1455   -0.0181 H   0  0  0  0  0  0
    3.0252    0.0418    2.2625 H   0  0  0  0  0  0
    1.2720   -0.0549    2.3358 H   0  0  0  0  0  0
    2.1073    1.2171    3.2051 H   0  0  0  0  0  0
    4.5397    3.4099    1.7092 H   0  0  0  0  0  0
   -5.2661    0.4768    0.5238 H   0  0  0  0  0  0
  1  2  2  0  0  0
  1  4  1  0  0  0
  1 20  1  0  0  0
  2  3  1  0  0  0
  2 21  1  0  0  0
  3  6  2  0  0  0
  3 22  1  0  0  0
  4  5  2  0  0  0
  4 23  1  0  0  0
  5  6  1  0  0  0
  5  9  1  0  0  0
  6  7  1  0  0  0
  7  8  1  0  0  0
  7 24  1  0  0  0
  7 25  1  0  0  0
  8 10  1  0  0  0
  8 26  1  0  0  0
  8 27  1  0  0  0
  9 10  1  0  0  0
  9 12  1  0  0  0
  9 28  1  0  0  0
 10 14  1  0  0  0
 10 29  1  0  0  0
 11 12  1  0  0  0
 11 13  1  0  0  0
 11 30  1  0  0  0
 11 31  1  0  0  0
 12 32  1  0  0  0
 12 33  1  0  0  0
 13 14  1  0  0  0
 13 17  1  0  0  0
 13 19  1  0  0  0
 14 15  1  0  0  0
 14 34  1  0  0  0
 15 16  1  0  0  0
 15 35  1  0  0  0
 15 36  1  0  0  0
 16 17  1  0  0  0
 16 37  1  0  0  0
 16 38  1  0  0  0
 17 18  1  0  0  0
 17 39  1  0  0  0
 18 43  1  0  0  0
 19 40  1  0  0  0
 19 41  1  0  0  0
 19 42  1  0  0  0
 20 44  1  0  0  0
M  END
>  <Name>
tox-382

>  <substance>
2-Hydroxyestratrien-17b-ol

>  <CASRN>
2259-89-4

>  <from_NCI>
1

>  <RBA>
18.000000

>  <method>
MCF-7 cytosol

>  <chemical_class>
Steroid, phenolic

>  <set>
0

$$$$
tox-383
  Cerius2 12190218273D 1   1.00000                          
 Structure written by MMmdl.
 44 47  0  0  0  0  0  0  0  0999 V2000
   -4.3648   -0.8706   -0.5657 C   0  0  0  0  0  0
   -4.2256    0.3993   -0.0235 C   0  0  0  0  0  0
   -2.9639    0.9895    0.0482 C   0  0  0  0  0  0
   -3.2446   -1.5425   -1.0461 C   0  0  0  0  0  0
   -1.9635   -0.9592   -1.0054 C   0  0  0  0  0  0
   -0.7703   -1.7133   -1.5522 C   0  0  0  0  0  0
    0.5038   -0.8864   -1.6941 C   0  0  0  0  0  0
    0.7108   -0.0324   -0.4452 C   0  0  0  0  0  0
    2.0452    0.7140   -0.4611 C   0  0  0  0  0  0
    3.3414   -0.0780   -0.6083 C   0  0  0  0  0  0
    4.4257    0.8797   -0.0808 C   0  0  0  0  0  0
    3.6805    2.0844    0.5260 C   0  0  0  0  0  0
    4.3654    2.5780    1.6667 O   0  0  0  0  0  0
    2.2697    1.5362    0.8243 C   0  0  0  0  0  0
    2.2783    0.7051    2.1326 C   0  0  0  0  0  0
    1.1653    2.5976    0.9042 C   0  0  0  0  0  0
   -0.2407    1.9697    0.8450 C   0  0  0  0  0  0
   -0.4455    1.0062   -0.3563 C   0  0  0  0  0  0
   -1.8133    0.3207   -0.4132 C   0  0  0  0  0  0
   -3.4829   -2.7914   -1.5517 O   0  0  0  0  0  0
   -5.3477   -1.3343   -0.6138 H   0  0  0  0  0  0
   -5.0989    0.9343    0.3450 H   0  0  0  0  0  0
   -2.9040    1.9916    0.4679 H   0  0  0  0  0  0
   -1.0126   -2.1234   -2.5400 H   0  0  0  0  0  0
   -0.5705   -2.5570   -0.8791 H   0  0  0  0  0  0
    0.4350   -0.2450   -2.5823 H   0  0  0  0  0  0
    1.3483   -1.5650   -1.8576 H   0  0  0  0  0  0
    0.6749   -0.7016    0.4241 H   0  0  0  0  0  0
    2.0135    1.4065   -1.3192 H   0  0  0  0  0  0
    3.5336   -0.3607   -1.6483 H   0  0  0  0  0  0
    3.3208   -0.9974   -0.0128 H   0  0  0  0  0  0
    5.0800    1.2136   -0.8940 H   0  0  0  0  0  0
    5.0645    0.3768    0.6541 H   0  0  0  0  0  0
    3.6394    2.8915   -0.2166 H   0  0  0  0  0  0
    3.8257    3.3206    2.0104 H   0  0  0  0  0  0
    2.4486    1.3544    2.9993 H   0  0  0  0  0  0
    3.0668   -0.0539    2.1408 H   0  0  0  0  0  0
    1.3337    0.1843    2.3099 H   0  0  0  0  0  0
    1.2641    3.3028    0.0686 H   0  0  0  0  0  0
    1.2643    3.1917    1.8206 H   0  0  0  0  0  0
   -0.9560    2.7984    0.7918 H   0  0  0  0  0  0
   -0.4545    1.4428    1.7828 H   0  0  0  0  0  0
   -0.4038    1.6307   -1.2622 H   0  0  0  0  0  0
   -2.6351   -3.2407   -1.7386 H   0  0  0  0  0  0
  1  2  2  0  0  0
  1  4  1  0  0  0
  1 21  1  0  0  0
  2  3  1  0  0  0
  2 22  1  0  0  0
  3 19  2  0  0  0
  3 23  1  0  0  0
  4  5  2  0  0  0
  4 20  1  0  0  0
  5  6  1  0  0  0
  5 19  1  0  0  0
  6  7  1  0  0  0
  6 24  1  0  0  0
  6 25  1  0  0  0
  7  8  1  0  0  0
  7 26  1  0  0  0
  7 27  1  0  0  0
  8  9  1  0  0  0
  8 18  1  0  0  0
  8 28  1  0  0  0
  9 10  1  0  0  0
  9 14  1  0  0  0
  9 29  1  0  0  0
 10 11  1  0  0  0
 10 30  1  0  0  0
 10 31  1  0  0  0
 11 12  1  0  0  0
 11 32  1  0  0  0
 11 33  1  0  0  0
 12 13  1  0  0  0
 12 14  1  0  0  0
 12 34  1  0  0  0
 13 35  1  0  0  0
 14 15  1  0  0  0
 14 16  1  0  0  0
 15 36  1  0  0  0
 15 37  1  0  0  0
 15 38  1  0  0  0
 16 17  1  0  0  0
 16 39  1  0  0  0
 16 40  1  0  0  0
 17 18  1  0  0  0
 17 41  1  0  0  0
 17 42  1  0  0  0
 18 19  1  0  0  0
 18 43  1  0  0  0
 20 44  1  0  0  0
M  END
>  <Name>
tox-383

>  <substance>
4-Hydroxyestratrien-17b-ol

>  <CASRN>
17592-89-1

>  <from_NCI>
0

>  <RBA>
0.800000

>  <method>
MCF-7 cytosol

>  <chemical_class>
Steroid, phenolic

>  <set>
1

$$$$
tox-384
  Cerius2 12190218273D 1   1.00000                          
 Structure written by MMmdl.
 42 45  0  0  0  0  0  0  0  0999 V2000
   -9.1436   -4.3850   10.5169 C   0  0  0  0  0  0
   -7.8603   -5.2373   10.6391 C   0  0  0  0  0  0
   -9.9792   -4.6057   11.7837 C   0  0  0  0  0  0
   -9.7659   -4.9564    9.2294 C   0  0  0  0  0  0
   -6.9952   -4.8012   11.8235 C   0  0  0  0  0  0
   -7.2580   -5.2188    9.2369 C   0  0  0  0  0  0
   -9.1829   -4.2808   13.0624 C   0  0  0  0  0  0
   -8.5239   -5.2466    8.4019 C   0  0  0  0  0  0
   -7.8101   -5.0003   13.1379 C   0  0  0  0  0  0
   -5.6901   -5.5944   11.9239 C   0  0  0  0  0  0
   -8.5441   -5.4812    7.1956 O   0  0  0  0  0  0
   -6.9687   -4.6634   14.3656 C   0  0  0  0  0  0
   -4.8168   -5.0209   13.0373 C   0  0  0  0  0  0
   -5.5666   -4.7199   14.3156 C   0  0  0  0  0  0
   -7.5552   -4.3758   15.6021 C   0  0  0  0  0  0
   -4.8058   -4.4385   15.4773 C   0  0  0  0  0  0
   -6.7713   -4.1103   16.7399 C   0  0  0  0  0  0
   -5.3680   -4.1245   16.7286 C   0  0  0  0  0  0
   -4.6657   -3.8788   17.7597 O   0  0  0  0  0  0
   -8.8989   -2.8692   10.3125 C   0  0  0  0  0  0
   -8.1591   -6.2826   10.8282 H   0  0  0  0  0  0
  -10.3073   -5.6521   11.8367 H   0  0  0  0  0  0
  -10.8918   -3.9983   11.7554 H   0  0  0  0  0  0
  -10.4186   -4.2459    8.7160 H   0  0  0  0  0  0
  -10.2927   -5.8993    9.4065 H   0  0  0  0  0  0
   -6.7287   -3.7422   11.7121 H   0  0  0  0  0  0
   -6.6513   -6.1063    9.0416 H   0  0  0  0  0  0
   -6.6924   -4.3074    9.0283 H   0  0  0  0  0  0
   -9.8091   -4.5719   13.9138 H   0  0  0  0  0  0
   -9.0386   -3.1971   13.1478 H   0  0  0  0  0  0
   -8.0305   -6.0751   13.2318 H   0  0  0  0  0  0
   -5.1302   -5.5595   10.9827 H   0  0  0  0  0  0
   -5.9075   -6.6510   12.1271 H   0  0  0  0  0  0
   -4.3619   -4.0851   12.6880 H   0  0  0  0  0  0
   -4.0027   -5.7265   13.2426 H   0  0  0  0  0  0
   -8.6363   -4.3559   15.7233 H   0  0  0  0  0  0
   -3.7149   -4.4713   15.3870 H   0  0  0  0  0  0
   -7.3013   -3.8869   17.6705 H   0  0  0  0  0  0
   -9.8543   -2.3430   10.1995 H   0  0  0  0  0  0
   -8.3110   -2.6595    9.4131 H   0  0  0  0  0  0
   -8.3759   -2.4054   11.1527 H   0  0  0  0  0  0
   -3.8412   -3.9340   17.5607 H   0  0  0  0  0  0
  1  2  1  0  0  0
  1  3  1  0  0  0
  1  4  1  0  0  0
  1 20  1  0  0  0
  2  5  1  0  0  0
  2  6  1  0  0  0
  2 21  1  0  0  0
  3  7  1  0  0  0
  3 22  1  0  0  0
  3 23  1  0  0  0
  4  8  1  0  0  0
  4 24  1  0  0  0
  4 25  1  0  0  0
  5  9  1  0  0  0
  5 10  1  0  0  0
  5 26  1  0  0  0
  6  8  1  0  0  0
  6 27  1  0  0  0
  6 28  1  0  0  0
  7  9  1  0  0  0
  7 29  1  0  0  0
  7 30  1  0  0  0
  8 11  2  0  0  0
  9 12  1  0  0  0
  9 31  1  0  0  0
 10 13  1  0  0  0
 10 32  1  0  0  0
 10 33  1  0  0  0
 12 14  2  0  0  0
 12 15  1  0  0  0
 13 14  1  0  0  0
 13 34  1  0  0  0
 13 35  1  0  0  0
 14 16  1  0  0  0
 15 17  2  0  0  0
 15 36  1  0  0  0
 16 18  2  0  0  0
 16 37  1  0  0  0
 17 18  1  0  0  0
 17 38  1  0  0  0
 18 19  1  0  0  0
 19 42  1  0  0  0
 20 39  1  0  0  0
 20 40  1  0  0  0
 20 41  1  0  0  0
M  END
>  <Name>
tox-384

>  <substance>
3-Hydroxyestra-1,3,5(10)-trien-16-one

>  <CASRN>
3601-97-6

>  <from_NCI>
1

>  <RBA>
0.500000

>  <method>
RUC

>  <chemical_class>
Steroid, phenolic

>  <set>
1

$$$$
tox-385
  Cerius2 12190218273D 1   1.00000                          
 Structure written by MMmdl.
 43 46  0  0  0  0  0  0  0  0999 V2000
   -7.8030   -4.9841   13.1265 C   0  0  0  0  0  0
   -6.9883   -4.7635   11.8119 C   0  0  0  0  0  0
   -6.9600   -4.6618   14.3587 C   0  0  0  0  0  0
   -9.1842   -4.2753   13.0577 C   0  0  0  0  0  0
   -7.8597   -5.1890   10.6303 C   0  0  0  0  0  0
   -5.6790   -5.5500   11.9001 C   0  0  0  0  0  0
   -5.5680   -4.7110   14.3035 C   0  0  0  0  0  0
   -7.5457   -4.3981   15.6127 C   0  0  0  0  0  0
   -9.9748   -4.5696   11.7668 C   0  0  0  0  0  0
   -9.1278   -4.3140   10.5240 C   0  0  0  0  0  0
   -7.2862   -5.1875    9.2177 C   0  0  0  0  0  0
   -4.8119   -4.9885   13.0249 C   0  0  0  0  0  0
   -4.8287   -4.4430   15.4724 C   0  0  0  0  0  0
   -6.8289   -4.1336   16.8199 C   0  0  0  0  0  0
   -9.6580   -4.8574    9.2057 C   0  0  0  0  0  0
   -8.5316   -5.4082    8.3454 C   0  0  0  0  0  0
   -5.3949   -4.1505   16.7433 C   0  0  0  0  0  0
   -7.4853   -3.9004   17.8947 O   0  0  0  0  0  0
  -10.8359   -4.8361    8.8576 O   0  0  0  0  0  0
   -4.6184   -3.9254   17.7360 O   0  0  0  0  0  0
   -8.8905   -2.8059   10.3160 C   0  0  0  0  0  0
   -8.0164   -6.0617   13.2058 H   0  0  0  0  0  0
   -6.7285   -3.7016   11.7135 H   0  0  0  0  0  0
   -9.0464   -3.1926   13.1677 H   0  0  0  0  0  0
   -9.8129   -4.5901   13.8986 H   0  0  0  0  0  0
   -8.1661   -6.2322   10.8215 H   0  0  0  0  0  0
   -5.1177   -5.4947   10.9610 H   0  0  0  0  0  0
   -5.8896   -6.6111   12.0856 H   0  0  0  0  0  0
   -8.6373   -4.4018   15.6802 H   0  0  0  0  0  0
  -10.8865   -3.9600   11.7469 H   0  0  0  0  0  0
  -10.3131   -5.6140   11.7832 H   0  0  0  0  0  0
   -6.5525   -5.9841    9.0601 H   0  0  0  0  0  0
   -6.8008   -4.2352    8.9784 H   0  0  0  0  0  0
   -4.3608   -4.0453   12.6911 H   0  0  0  0  0  0
   -3.9947   -5.6927   13.2225 H   0  0  0  0  0  0
   -3.7360   -4.4657   15.3871 H   0  0  0  0  0  0
   -8.7077   -6.4740    8.1740 H   0  0  0  0  0  0
   -8.4607   -4.8678    7.3992 H   0  0  0  0  0  0
   -9.8494   -2.2851   10.2038 H   0  0  0  0  0  0
   -8.3177   -2.5942    9.4070 H   0  0  0  0  0  0
   -8.3644   -2.3389   11.1526 H   0  0  0  0  0  0
   -6.9424   -3.7601   18.5335 H   0  0  0  0  0  0
   -3.8094   -3.9828   17.4816 H   0  0  0  0  0  0
  1  2  1  0  0  0
  1  3  1  0  0  0
  1  4  1  0  0  0
  1 22  1  0  0  0
  2  5  1  0  0  0
  2  6  1  0  0  0
  2 23  1  0  0  0
  3  7  2  0  0  0
  3  8  1  0  0  0
  4  9  1  0  0  0
  4 24  1  0  0  0
  4 25  1  0  0  0
  5 10  1  0  0  0
  5 11  1  0  0  0
  5 26  1  0  0  0
  6 12  1  0  0  0
  6 27  1  0  0  0
  6 28  1  0  0  0
  7 12  1  0  0  0
  7 13  1  0  0  0
  8 14  2  0  0  0
  8 29  1  0  0  0
  9 10  1  0  0  0
  9 30  1  0  0  0
  9 31  1  0  0  0
 10 15  1  0  0  0
 10 21  1  0  0  0
 11 16  1  0  0  0
 11 32  1  0  0  0
 11 33  1  0  0  0
 12 34  1  0  0  0
 12 35  1  0  0  0
 13 17  2  0  0  0
 13 36  1  0  0  0
 14 17  1  0  0  0
 14 18  1  0  0  0
 15 16  1  0  0  0
 15 19  2  0  0  0
 16 37  1  0  0  0
 16 38  1  0  0  0
 17 20  1  0  0  0
 18 42  1  0  0  0
 20 43  1  0  0  0
 21 39  1  0  0  0
 21 40  1  0  0  0
 21 41  1  0  0  0
M  END
>  <Name>
tox-385

>  <substance>
2-Hydroxyestrone

>  <CASRN>
362-06-1

>  <from_NCI>
1

>  <RBA>
2.000000

>  <method>
hERa

>  <chemical_class>
Steroid, phenolic

>  <set>
0

$$$$
tox-386
  Cerius2 12190218273D 1   1.00000                          
 Structure written by MMmdl.
 19 18  0  0  0  0  0  0  0  0999 V2000
    0.6302   -0.9735   -0.0179 C   0  0  0  0  0  0
    1.7919   -0.0354   -0.0182 C   0  0  0  0  0  0
   -0.5501   -0.3045   -0.0079 O   0  0  0  0  0  0
    0.7534   -2.1923   -0.0258 O   0  0  0  0  0  0
    3.1436   -0.6864   -0.0280 C   0  0  0  0  0  0
    1.6451    1.3009   -0.0102 C   0  0  0  0  0  0
   -1.7214   -1.1391   -0.0071 C   0  0  0  0  0  0
   -2.9664   -0.2077    0.0058 C   0  0  0  0  0  0
   -4.0546   -0.9633    0.0064 O   0  0  0  0  0  0
    3.9538    0.0507   -0.0278 H   0  0  0  0  0  0
    3.2628   -1.3085   -0.9212 H   0  0  0  0  0  0
    3.2711   -1.3180    0.8574 H   0  0  0  0  0  0
    2.5081    1.9617   -0.0107 H   0  0  0  0  0  0
    0.6733    1.7863   -0.0031 H   0  0  0  0  0  0
   -1.7038   -1.7780    0.8861 H   0  0  0  0  0  0
   -1.7134   -1.7660   -0.9089 H   0  0  0  0  0  0
   -2.8133    0.4891   -0.8347 H   0  0  0  0  0  0
   -2.8043    0.4776    0.8541 H   0  0  0  0  0  0
   -4.7444   -0.4667    0.0134 H   0  0  0  0  0  0
  1  2  1  0  0  0
  1  3  1  0  0  0
  1  4  2  0  0  0
  2  5  1  0  0  0
  2  6  2  0  0  0
  3  7  1  0  0  0
  5 10  1  0  0  0
  5 11  1  0  0  0
  5 12  1  0  0  0
  6 13  1  0  0  0
  6 14  1  0  0  0
  7  8  1  0  0  0
  7 15  1  0  0  0
  7 16  1  0  0  0
  8  9  1  0  0  0
  8 17  1  0  0  0
  8 18  1  0  0  0
  9 19  1  0  0  0
M  END
>  <Name>
tox-386

>  <substance>
2-Hydroxyethyl methacrylate

>  <CASRN>
868-77-9

>  <from_NCI>
1

>  <RBA>
0.000000

>  <method>
hERa-FP

>  <chemical_class>
Acrylate

>  <set>
1

$$$$
tox-387
  Cerius2 12190218273D 1   1.00000                          
 Structure written by MMmdl.
 30 32  0  0  0  0  0  0  0  0999 V2000
    0.5448   -0.9228    0.4050 C   0  0  0  0  0  0
    0.3157   -1.4970   -0.9872 C   0  0  0  0  0  0
   -0.9728   -2.2722   -0.9760 C   0  0  0  0  0  0
   -1.1691   -3.2358   -1.7161 O   0  0  0  0  0  0
   -2.0319   -1.7671   -0.0753 C   0  0  0  0  0  0
   -3.3032   -2.3496   -0.0676 C   0  0  0  0  0  0
   -4.3016   -1.8178    0.7503 C   0  0  0  0  0  0
   -4.0321   -0.7055    1.5493 C   0  0  0  0  0  0
   -2.7613   -0.1269    1.5414 C   0  0  0  0  0  0
   -1.7554   -0.6675    0.7411 C   0  0  0  0  0  0
   -0.5334   -0.0493    0.7913 O   0  0  0  0  0  0
    1.8400   -0.1312    0.4587 C   0  0  0  0  0  0
    1.9385    1.1470   -0.1155 C   0  0  0  0  0  0
    3.1417    1.8463   -0.0694 C   0  0  0  0  0  0
    4.2644    1.2960    0.5384 C   0  0  0  0  0  0
    4.1805    0.0256    1.1072 C   0  0  0  0  0  0
    2.9780   -0.6851    1.0667 C   0  0  0  0  0  0
    3.1833    3.0846   -0.6398 O   0  0  0  0  0  0
    0.5966   -1.7291    1.1516 H   0  0  0  0  0  0
    1.1340   -2.1707   -1.2647 H   0  0  0  0  0  0
    0.2252   -0.7142   -1.7490 H   0  0  0  0  0  0
   -3.5270   -3.2060   -0.7002 H   0  0  0  0  0  0
   -5.2941   -2.2656    0.7585 H   0  0  0  0  0  0
   -4.8148   -0.2877    2.1808 H   0  0  0  0  0  0
   -2.5583    0.7388    2.1687 H   0  0  0  0  0  0
    1.0745    1.5997   -0.5992 H   0  0  0  0  0  0
    5.2070    1.8368    0.5772 H   0  0  0  0  0  0
    5.0552   -0.4150    1.5832 H   0  0  0  0  0  0
    2.9382   -1.6780    1.5144 H   0  0  0  0  0  0
    4.0886    3.4462   -0.5277 H   0  0  0  0  0  0
  1  2  1  0  0  0
  1 11  1  0  0  0
  1 12  1  0  0  0
  1 19  1  0  0  0
  2  3  1  0  0  0
  2 20  1  0  0  0
  2 21  1  0  0  0
  3  4  2  0  0  0
  3  5  1  0  0  0
  5  6  2  0  0  0
  5 10  1  0  0  0
  6  7  1  0  0  0
  6 22  1  0  0  0
  7  8  2  0  0  0
  7 23  1  0  0  0
  8  9  1  0  0  0
  8 24  1  0  0  0
  9 10  2  0  0  0
  9 25  1  0  0  0
 10 11  1  0  0  0
 12 13  2  0  0  0
 12 17  1  0  0  0
 13 14  1  0  0  0
 13 26  1  0  0  0
 14 15  2  0  0  0
 14 18  1  0  0  0
 15 16  1  0  0  0
 15 27  1  0  0  0
 16 17  2  0  0  0
 16 28  1  0  0  0
 17 29  1  0  0  0
 18 30  1  0  0  0
M  END
>  <Name>
tox-387

>  <substance>
3'-Hydroxyflavanone

>  <CASRN>
92496-65-6

>  <from_NCI>
0

>  <RBA>
0.002000

>  <method>
RUC

>  <chemical_class>
Flavanone

>  <set>
0

$$$$
tox-388
  Cerius2 12190218273D 1   1.00000                          
 Structure written by MMmdl.
 30 32  0  0  0  0  0  0  0  0999 V2000
    0.1971   -0.6509    0.3569 C   0  0  0  0  0  0
   -0.0592   -1.2624   -1.0144 C   0  0  0  0  0  0
   -1.3493   -2.0328   -0.9582 C   0  0  0  0  0  0
   -1.5616   -3.0164   -1.6669 O   0  0  0  0  0  0
   -2.3906   -1.4989   -0.0533 C   0  0  0  0  0  0
   -3.6635   -2.0760   -0.0071 C   0  0  0  0  0  0
   -4.6454   -1.5181    0.8134 C   0  0  0  0  0  0
   -4.3580   -0.3853    1.5766 C   0  0  0  0  0  0
   -3.0856    0.1879    1.5303 C   0  0  0  0  0  0
   -2.0959   -0.3782    0.7274 C   0  0  0  0  0  0
   -0.8713    0.2366    0.7388 O   0  0  0  0  0  0
    1.4957    0.1382    0.3648 C   0  0  0  0  0  0
    1.5890    1.3975   -0.2514 C   0  0  0  0  0  0
    2.7947    2.1027   -0.2509 C   0  0  0  0  0  0
    3.9140    1.5520    0.3614 C   0  0  0  0  0  0
    3.8483    0.3053    0.9731 C   0  0  0  0  0  0
    2.6417   -0.4004    0.9726 C   0  0  0  0  0  0
    5.0735    2.2695    0.3415 O   0  0  0  0  0  0
    0.2605   -1.4365    1.1243 H   0  0  0  0  0  0
    0.7520   -1.9461   -1.2882 H   0  0  0  0  0  0
   -0.1616   -0.5006   -1.7959 H   0  0  0  0  0  0
   -3.9014   -2.9486   -0.6118 H   0  0  0  0  0  0
   -5.6392   -1.9616    0.8514 H   0  0  0  0  0  0
   -5.1279    0.0526    2.2102 H   0  0  0  0  0  0
   -2.8685    1.0696    2.1299 H   0  0  0  0  0  0
    0.7189    1.8393   -0.7362 H   0  0  0  0  0  0
    2.8524    3.0777   -0.7295 H   0  0  0  0  0  0
    4.7207   -0.1333    1.4522 H   0  0  0  0  0  0
    2.6048   -1.3784    1.4522 H   0  0  0  0  0  0
    5.7644    1.7531    0.8092 H   0  0  0  0  0  0
  1  2  1  0  0  0
  1 11  1  0  0  0
  1 12  1  0  0  0
  1 19  1  0  0  0
  2  3  1  0  0  0
  2 20  1  0  0  0
  2 21  1  0  0  0
  3  4  2  0  0  0
  3  5  1  0  0  0
  5  6  2  0  0  0
  5 10  1  0  0  0
  6  7  1  0  0  0
  6 22  1  0  0  0
  7  8  2  0  0  0
  7 23  1  0  0  0
  8  9  1  0  0  0
  8 24  1  0  0  0
  9 10  2  0  0  0
  9 25  1  0  0  0
 10 11  1  0  0  0
 12 13  2  0  0  0
 12 17  1  0  0  0
 13 14  1  0  0  0
 13 26  1  0  0  0
 14 15  2  0  0  0
 14 27  1  0  0  0
 15 16  1  0  0  0
 15 18  1  0  0  0
 16 17  2  0  0  0
 16 28  1  0  0  0
 17 29  1  0  0  0
 18 30  1  0  0  0
M  END
>  <Name>
tox-388

>  <substance>
4'-Hydroxyflavanone

>  <CASRN>
135413-27-3

>  <from_NCI>
0

>  <RBA>
0.002000

>  <method>
RUC

>  <chemical_class>
Flavanone

>  <set>
0

$$$$
tox-389
  Cerius2 12190218273D 1   1.00000                          
 Structure written by MMmdl.
 30 32  0  0  0  0  0  0  0  0999 V2000
    0.6977   -0.5103    0.6444 C   0  0  0  0  0  0
    1.2523   -1.4630   -0.4070 C   0  0  0  0  0  0
    0.1364   -2.3546   -0.8770 C   0  0  0  0  0  0
    0.3333   -3.4992   -1.2841 O   0  0  0  0  0  0
   -1.2154   -1.7553   -0.8973 C   0  0  0  0  0  0
   -2.3025   -2.4626   -1.4185 C   0  0  0  0  0  0
   -3.5483   -1.8460   -1.4748 C   0  0  0  0  0  0
   -3.7221   -0.5386   -1.0271 C   0  0  0  0  0  0
   -2.6323    0.1627   -0.5050 C   0  0  0  0  0  0
   -1.3819   -0.4505   -0.4247 C   0  0  0  0  0  0
   -0.3644    0.2994    0.1041 O   0  0  0  0  0  0
    1.7846    0.4152    1.1642 C   0  0  0  0  0  0
    2.2557    1.4924    0.3960 C   0  0  0  0  0  0
    3.2685    2.3228    0.8800 C   0  0  0  0  0  0
    3.8258    2.0855    2.1346 C   0  0  0  0  0  0
    3.3724    1.0174    2.9059 C   0  0  0  0  0  0
    2.3595    0.1854    2.4239 C   0  0  0  0  0  0
   -4.5910   -2.5589   -1.9897 O   0  0  0  0  0  0
    0.2813   -1.0723    1.4935 H   0  0  0  0  0  0
    2.0486   -2.0837    0.0183 H   0  0  0  0  0  0
    1.6438   -0.9321   -1.2825 H   0  0  0  0  0  0
   -2.1802   -3.4776   -1.7873 H   0  0  0  0  0  0
   -4.6936   -0.0515   -1.0762 H   0  0  0  0  0  0
   -2.7665    1.1836   -0.1529 H   0  0  0  0  0  0
    1.8335    1.6927   -0.5884 H   0  0  0  0  0  0
    3.6234    3.1560    0.2757 H   0  0  0  0  0  0
    4.6157    2.7330    2.5113 H   0  0  0  0  0  0
    3.8094    0.8299    3.8854 H   0  0  0  0  0  0
    2.0232   -0.6467    3.0421 H   0  0  0  0  0  0
   -5.3950   -1.9966   -1.9651 H   0  0  0  0  0  0
  1  2  1  0  0  0
  1 11  1  0  0  0
  1 12  1  0  0  0
  1 19  1  0  0  0
  2  3  1  0  0  0
  2 20  1  0  0  0
  2 21  1  0  0  0
  3  4  2  0  0  0
  3  5  1  0  0  0
  5  6  2  0  0  0
  5 10  1  0  0  0
  6  7  1  0  0  0
  6 22  1  0  0  0
  7  8  2  0  0  0
  7 18  1  0  0  0
  8  9  1  0  0  0
  8 23  1  0  0  0
  9 10  2  0  0  0
  9 24  1  0  0  0
 10 11  1  0  0  0
 12 13  2  0  0  0
 12 17  1  0  0  0
 13 14  1  0  0  0
 13 25  1  0  0  0
 14 15  2  0  0  0
 14 26  1  0  0  0
 15 16  1  0  0  0
 15 27  1  0  0  0
 16 17  2  0  0  0
 16 28  1  0  0  0
 17 29  1  0  0  0
 18 30  1  0  0  0
M  END
>  <Name>
tox-389

>  <substance>
6-Hydroxyflavanone

>  <CASRN>
4250-77-5

>  <from_NCI>
0

>  <RBA>
0.000900

>  <method>
RUC

>  <chemical_class>
Flavanone

>  <set>
0

$$$$
tox-390
  Cerius2 12190218273D 1   1.00000                          
 Structure written by MMmdl.
 30 32  0  0  0  0  0  0  0  0999 V2000
    0.6209   -0.4954    0.5418 C   0  0  0  0  0  0
    1.1782   -1.5203   -0.4376 C   0  0  0  0  0  0
    0.0507   -2.4038   -0.8944 C   0  0  0  0  0  0
    0.2249   -3.5743   -1.2324 O   0  0  0  0  0  0
   -1.2814   -1.7672   -0.9906 C   0  0  0  0  0  0
   -2.3750   -2.4697   -1.5073 C   0  0  0  0  0  0
   -3.6075   -1.8271   -1.6402 C   0  0  0  0  0  0
   -3.7344   -0.4921   -1.2649 C   0  0  0  0  0  0
   -2.6508    0.2135   -0.7477 C   0  0  0  0  0  0
   -1.4234   -0.4334   -0.5955 C   0  0  0  0  0  0
   -0.3981    0.3141   -0.0761 O   0  0  0  0  0  0
    1.7188    0.4256    1.0461 C   0  0  0  0  0  0
    2.2499    1.4415    0.2347 C   0  0  0  0  0  0
    3.2717    2.2682    0.7061 C   0  0  0  0  0  0
    3.7782    2.0881    1.9914 C   0  0  0  0  0  0
    3.2649    1.0809    2.8060 C   0  0  0  0  0  0
    2.2429    0.2529    2.3367 C   0  0  0  0  0  0
   -4.9537    0.0996   -1.4205 O   0  0  0  0  0  0
    0.1609   -0.9974    1.4059 H   0  0  0  0  0  0
    1.9417   -2.1393    0.0466 H   0  0  0  0  0  0
    1.6127   -1.0503   -1.3275 H   0  0  0  0  0  0
   -2.2745   -3.5074   -1.8175 H   0  0  0  0  0  0
   -4.4604   -2.3685   -2.0442 H   0  0  0  0  0  0
   -2.7507    1.2550   -0.4528 H   0  0  0  0  0  0
    1.8680    1.5965   -0.7741 H   0  0  0  0  0  0
    3.6733    3.0536    0.0680 H   0  0  0  0  0  0
    4.5751    2.7326    2.3583 H   0  0  0  0  0  0
    3.6621    0.9380    3.8097 H   0  0  0  0  0  0
    1.8594   -0.5312    2.9892 H   0  0  0  0  0  0
   -4.8902    1.0308   -1.1175 H   0  0  0  0  0  0
  1  2  1  0  0  0
  1 11  1  0  0  0
  1 12  1  0  0  0
  1 19  1  0  0  0
  2  3  1  0  0  0
  2 20  1  0  0  0
  2 21  1  0  0  0
  3  4  2  0  0  0
  3  5  1  0  0  0
  5  6  2  0  0  0
  5 10  1  0  0  0
  6  7  1  0  0  0
  6 22  1  0  0  0
  7  8  2  0  0  0
  7 23  1  0  0  0
  8  9  1  0  0  0
  8 18  1  0  0  0
  9 10  2  0  0  0
  9 24  1  0  0  0
 10 11  1  0  0  0
 12 13  2  0  0  0
 12 17  1  0  0  0
 13 14  1  0  0  0
 13 25  1  0  0  0
 14 15  2  0  0  0
 14 26  1  0  0  0
 15 16  1  0  0  0
 15 27  1  0  0  0
 16 17  2  0  0  0
 16 28  1  0  0  0
 17 29  1  0  0  0
 18 30  1  0  0  0
M  END
>  <Name>
tox-390

>  <substance>
7-Hydroxyflavanone

>  <CASRN>
6515-36-2

>  <from_NCI>
0

>  <RBA>
0.000200

>  <method>
RUC

>  <chemical_class>
Flavanone

>  <set>
1

$$$$
tox-391
  Cerius2 12190218273D 1   1.00000                          
 Structure written by MMmdl.
 28 30  0  0  0  0  0  0  0  0999 V2000
    0.6482   -0.4427   -0.1294 C   0  0  0  0  0  0
    0.7905   -1.7377   -0.4505 C   0  0  0  0  0  0
   -1.6905   -1.9637   -0.1943 C   0  0  0  0  0  0
   -0.4001   -2.6043   -0.5041 C   0  0  0  0  0  0
   -0.5695    0.1598    0.1501 O   0  0  0  0  0  0
   -1.7007   -0.6126    0.1160 C   0  0  0  0  0  0
   -2.8908   -2.6982   -0.2114 C   0  0  0  0  0  0
    1.8033    0.4760   -0.0699 C   0  0  0  0  0  0
   -0.3012   -3.7932   -0.7937 O   0  0  0  0  0  0
   -2.9087    0.0043    0.4083 C   0  0  0  0  0  0
   -4.1438   -2.1179    0.0788 C   0  0  0  0  0  0
   -4.0989   -0.7422    0.3874 C   0  0  0  0  0  0
   -5.2274   -2.7823    0.0633 O   0  0  0  0  0  0
    1.6943    1.7763   -0.5874 C   0  0  0  0  0  0
    3.0178    0.0931    0.5206 C   0  0  0  0  0  0
    2.7729    2.6633   -0.5295 C   0  0  0  0  0  0
    4.0962    0.9809    0.5788 C   0  0  0  0  0  0
    3.9737    2.2645    0.0524 C   0  0  0  0  0  0
    1.7413   -2.1979   -0.6874 H   0  0  0  0  0  0
   -2.8404   -3.7611   -0.4609 H   0  0  0  0  0  0
   -2.9419    1.0635    0.6544 H   0  0  0  0  0  0
   -5.0264   -0.2124    0.6250 H   0  0  0  0  0  0
    0.7664    2.1112   -1.0501 H   0  0  0  0  0  0
    3.1387   -0.8989    0.9540 H   0  0  0  0  0  0
    2.6732    3.6668   -0.9398 H   0  0  0  0  0  0
    5.0318    0.6688    1.0400 H   0  0  0  0  0  0
    4.8136    2.9555    0.0985 H   0  0  0  0  0  0
   -5.8764   -2.2706    0.2619 H   0  0  0  0  0  0
  1  2  2  0  0  0
  1  5  1  0  0  0
  1  8  1  0  0  0
  2  4  1  0  0  0
  2 19  1  0  0  0
  3  4  1  0  0  0
  3  6  2  0  0  0
  3  7  1  0  0  0
  4  9  2  0  0  0
  5  6  1  0  0  0
  6 10  1  0  0  0
  7 11  2  0  0  0
  7 20  1  0  0  0
  8 14  2  0  0  0
  8 15  1  0  0  0
 10 12  2  0  0  0
 10 21  1  0  0  0
 11 12  1  0  0  0
 11 13  1  0  0  0
 12 22  1  0  0  0
 13 28  1  0  0  0
 14 16  1  0  0  0
 14 23  1  0  0  0
 15 17  2  0  0  0
 15 24  1  0  0  0
 16 18  2  0  0  0
 16 25  1  0  0  0
 17 18  1  0  0  0
 17 26  1  0  0  0
 18 27  1  0  0  0
M  END
>  <Name>
tox-391

>  <substance>
6-Hydroxyflavone

>  <CASRN>
6665-83-4

>  <from_NCI>
1

>  <RBA>
0.000400

>  <method>
RUC

>  <chemical_class>
Flavone

>  <set>
0

$$$$
tox-392
  Cerius2 12190218273D 1   1.00000                          
 Structure written by MMmdl.
 28 30  0  0  0  0  0  0  0  0999 V2000
    0.7118   -0.2381    0.0216 C   0  0  0  0  0  0
    0.7566   -1.5790   -0.0088 C   0  0  0  0  0  0
   -1.6582   -0.1714    0.0365 C   0  0  0  0  0  0
   -0.4619    0.5017    0.0353 O   0  0  0  0  0  0
   -0.5027   -2.3434   -0.0138 C   0  0  0  0  0  0
   -1.7449   -1.5545    0.0139 C   0  0  0  0  0  0
   -2.8294    0.6026    0.0613 C   0  0  0  0  0  0
   -2.9945   -2.1652    0.0164 C   0  0  0  0  0  0
    1.9412    0.5808    0.0176 C   0  0  0  0  0  0
   -0.4979   -3.5706   -0.0401 O   0  0  0  0  0  0
   -4.1234    0.0381    0.0653 C   0  0  0  0  0  0
   -4.1535   -1.3722    0.0420 C   0  0  0  0  0  0
   -5.1798    0.7451    0.0881 O   0  0  0  0  0  0
    3.0523    0.2430    0.8061 C   0  0  0  0  0  0
    2.0092    1.7424   -0.7675 C   0  0  0  0  0  0
    4.2030    1.0367    0.7980 C   0  0  0  0  0  0
    3.1602    2.5353   -0.7758 C   0  0  0  0  0  0
    4.2570    2.1811    0.0060 C   0  0  0  0  0  0
    1.6757   -2.1500   -0.0399 H   0  0  0  0  0  0
   -2.7187    1.6901    0.0784 H   0  0  0  0  0  0
   -3.0861   -3.2489   -0.0011 H   0  0  0  0  0  0
   -5.1166   -1.8914    0.0433 H   0  0  0  0  0  0
    3.0342   -0.6378    1.4467 H   0  0  0  0  0  0
    1.1655    2.0392   -1.3899 H   0  0  0  0  0  0
    5.0567    0.7611    1.4150 H   0  0  0  0  0  0
    3.1984    3.4305   -1.3941 H   0  0  0  0  0  0
    5.1533    2.7990    0.0004 H   0  0  0  0  0  0
   -5.8610    0.2367    0.0867 H   0  0  0  0  0  0
  1  2  2  0  0  0
  1  4  1  0  0  0
  1  9  1  0  0  0
  2  5  1  0  0  0
  2 19  1  0  0  0
  3  4  1  0  0  0
  3  6  2  0  0  0
  3  7  1  0  0  0
  5  6  1  0  0  0
  5 10  2  0  0  0
  6  8  1  0  0  0
  7 11  2  0  0  0
  7 20  1  0  0  0
  8 12  2  0  0  0
  8 21  1  0  0  0
  9 14  2  0  0  0
  9 15  1  0  0  0
 11 12  1  0  0  0
 11 13  1  0  0  0
 12 22  1  0  0  0
 13 28  1  0  0  0
 14 16  1  0  0  0
 14 23  1  0  0  0
 15 17  2  0  0  0
 15 24  1  0  0  0
 16 18  2  0  0  0
 16 25  1  0  0  0
 17 18  1  0  0  0
 17 26  1  0  0  0
 18 27  1  0  0  0
M  END
>  <Name>
tox-392

>  <substance>
7-Hydroxyflavone

>  <CASRN>
6665-86-7

>  <from_NCI>
1

>  <RBA>
0.000000

>  <method>
RUC

>  <chemical_class>
Flavone

>  <set>
0

$$$$
tox-393
  Cerius2 12190218273D 1   1.00000                          
 Structure written by MMmdl.
 32 32  0  0  0  0  0  0  0  0999 V2000
   -0.4645    0.8110   -0.0073 C   0  0  0  0  0  0
   -1.7272    1.4450   -0.0043 C   0  0  0  0  0  0
   -1.8041    2.9468    0.0292 C   0  0  0  0  0  0
   -2.7698    3.4263    0.8692 F   0  0  0  0  0  0
   -0.6477    3.5451    0.4535 F   0  0  0  0  0  0
   -2.8701    0.6313   -0.0385 C   0  0  0  0  0  0
   -4.2083    1.2082   -0.0757 N   0  0  0  0  0  0
   -5.0272    0.8247    0.7780 O   0  0  0  0  0  0
   -4.4512    2.0431   -0.9634 O   0  0  0  0  0  0
   -2.7711   -0.7647   -0.0493 C   0  0  0  0  0  0
   -1.5094   -1.3635   -0.0409 C   0  0  0  0  0  0
   -0.3450   -0.5844   -0.0237 C   0  0  0  0  0  0
    0.8823   -1.2802   -0.0231 N   0  0  0  0  0  0
    2.1700   -0.7646   -0.0109 C   0  0  0  0  0  0
    2.4428    0.4392    0.0004 O   0  0  0  0  0  0
    3.2986   -1.8527   -0.0127 C   0  0  0  0  0  0
    4.5908   -1.2179    0.0006 O   0  0  0  0  0  0
    3.2223   -2.7028   -1.2836 C   0  0  0  0  0  0
    3.2063   -2.7232    1.2432 C   0  0  0  0  0  0
   -2.0607    3.4994   -1.1930 F   0  0  0  0  0  0
    0.4193    1.4435    0.0086 H   0  0  0  0  0  0
   -3.6606   -1.3912   -0.0736 H   0  0  0  0  0  0
   -1.4519   -2.4511   -0.0531 H   0  0  0  0  0  0
    0.7990   -2.2936   -0.0340 H   0  0  0  0  0  0
    5.2577   -1.9350   -0.0009 H   0  0  0  0  0  0
    4.0668   -3.3988   -1.3427 H   0  0  0  0  0  0
    3.2768   -2.0659   -2.1741 H   0  0  0  0  0  0
    2.2967   -3.2838   -1.3415 H   0  0  0  0  0  0
    4.0497   -3.4206    1.3014 H   0  0  0  0  0  0
    2.2798   -3.3044    1.2804 H   0  0  0  0  0  0
    3.2502   -2.1008    2.1445 H   0  0  0  0  0  0
   -5.2549    2.3097   -0.8894 H   0  0  0  0  0  0
  1  2  2  0  0  0
  1 12  1  0  0  0
  1 21  1  0  0  0
  2  3  1  0  0  0
  2  6  1  0  0  0
  3  4  1  0  0  0
  3  5  1  0  0  0
  3 20  1  0  0  0
  6  7  1  0  0  0
  6 10  2  0  0  0
  7  8  2  0  0  0
  7  9  1  0  0  0
  9 32  1  0  0  0
 10 11  1  0  0  0
 10 22  1  0  0  0
 11 12  2  0  0  0
 11 23  1  0  0  0
 12 13  1  0  0  0
 13 14  1  0  0  0
 13 24  1  0  0  0
 14 15  2  0  0  0
 14 16  1  0  0  0
 16 17  1  0  0  0
 16 18  1  0  0  0
 16 19  1  0  0  0
 17 25  1  0  0  0
 18 26  1  0  0  0
 18 27  1  0  0  0
 18 28  1  0  0  0
 19 29  1  0  0  0
 19 30  1  0  0  0
 19 31  1  0  0  0
M  END
>  <Name>
tox-393

>  <substance>
Hydroxyflutamide

>  <CASRN>
52806-53-8

>  <from_NCI>
1

>  <RBA>
0.000200

>  <method>
RUC,RUC

>  <chemical_class>
Nitrobenzene

>  <set>
2

$$$$
tox-394
  Cerius2 12190218273D 1   1.00000                          
 Structure written by MMmdl.
 29 30  0  0  0  0  0  0  0  0999 V2000
   -0.6954   -0.7341   -0.6953 C   0  0  0  0  0  0
    0.6495   -1.3625   -0.8126 C   0  0  0  0  0  0
   -1.6415   -0.7833   -1.7595 C   0  0  0  0  0  0
   -0.9603   -0.1128    0.5416 C   0  0  0  0  0  0
    1.8032   -0.5869   -1.3652 C   0  0  0  0  0  0
    0.7987   -2.5118   -0.3943 O   0  0  0  0  0  0
   -2.8618   -0.1317   -1.4601 C   0  0  0  0  0  0
   -1.4560   -1.3471   -2.8912 O   0  0  0  0  0  0
   -2.1844    0.5093    0.7693 C   0  0  0  0  0  0
    3.0527   -1.2185   -1.4564 C   0  0  0  0  0  0
    1.6840    0.7487   -1.7728 C   0  0  0  0  0  0
   -3.1437    0.5050   -0.2342 C   0  0  0  0  0  0
    4.1622   -0.5272   -1.9490 C   0  0  0  0  0  0
    2.7968    1.4374   -2.2649 C   0  0  0  0  0  0
   -4.3867    1.0732   -0.1582 O   0  0  0  0  0  0
    4.0334    0.8002   -2.3525 C   0  0  0  0  0  0
   -4.7171    1.7359    1.0620 C   0  0  0  0  0  0
   -0.2072   -0.1134    1.3280 H   0  0  0  0  0  0
   -3.6482   -0.1152   -2.2216 H   0  0  0  0  0  0
   -2.3509    0.9807    1.7332 H   0  0  0  0  0  0
    3.1731   -2.2543   -1.1433 H   0  0  0  0  0  0
    0.7338    1.2749   -1.7189 H   0  0  0  0  0  0
    5.1277   -1.0257   -2.0163 H   0  0  0  0  0  0
    2.6965    2.4746   -2.5807 H   0  0  0  0  0  0
    4.8980    1.3394   -2.7361 H   0  0  0  0  0  0
   -5.7305    2.1357    0.9591 H   0  0  0  0  0  0
   -4.0425    2.5782    1.2472 H   0  0  0  0  0  0
   -4.7181    1.0340    1.9023 H   0  0  0  0  0  0
   -2.1512   -1.2541   -3.3714 H   0  0  0  0  0  0
  1  2  1  0  0  0
  1  3  2  0  0  0
  1  4  1  0  0  0
  2  5  1  0  0  0
  2  6  2  0  0  0
  3  7  1  0  0  0
  3  8  1  0  0  0
  4  9  2  0  0  0
  4 18  1  0  0  0
  5 10  2  0  0  0
  5 11  1  0  0  0
  7 12  2  0  0  0
  7 19  1  0  0  0
  8 29  1  0  0  0
  9 12  1  0  0  0
  9 20  1  0  0  0
 10 13  1  0  0  0
 10 21  1  0  0  0
 11 14  2  0  0  0
 11 22  1  0  0  0
 12 15  1  0  0  0
 13 16  2  0  0  0
 13 23  1  0  0  0
 14 16  1  0  0  0
 14 24  1  0  0  0
 15 17  1  0  0  0
 16 25  1  0  0  0
 17 26  1  0  0  0
 17 27  1  0  0  0
 17 28  1  0  0  0
M  END
>  <Name>
tox-394

>  <substance>
2-Hydroxy-4-methoxybenzophenone

>  <CASRN>
131-57-7

>  <from_NCI>
1

>  <RBA>
0.000000

>  <method>
RUC

>  <chemical_class>
Benzophenone

>  <set>
0

$$$$
tox-395
  Cerius2 12190218273D 1   1.00000                          
 Structure written by MMmdl.
 32 34  0  0  0  0  0  0  0  0999 V2000
    0.3950   -0.4508    0.5527 C   0  0  0  0  0  0
    0.1218   -1.6655    1.0500 C   0  0  0  0  0  0
   -1.1508   -2.3143    0.6929 C   0  0  0  0  0  0
   -1.4375   -3.4256    1.1280 O   0  0  0  0  0  0
   -2.0425   -1.5582   -0.2035 C   0  0  0  0  0  0
   -3.2738   -2.0854   -0.6029 C   0  0  0  0  0  0
   -4.0868   -1.3391   -1.4500 C   0  0  0  0  0  0
   -3.6904   -0.0820   -1.9014 C   0  0  0  0  0  0
   -2.4581    0.4387   -1.4984 C   0  0  0  0  0  0
   -1.6346   -0.3009   -0.6486 C   0  0  0  0  0  0
   -0.4375    0.2654   -0.2892 O   0  0  0  0  0  0
    1.6521    0.2407    0.8892 C   0  0  0  0  0  0
    1.6609    1.4359    1.6397 C   0  0  0  0  0  0
    2.8826    2.0580    1.9228 C   0  0  0  0  0  0
    4.0830    1.5047    1.4681 C   0  0  0  0  0  0
    4.0765    0.3264    0.7284 C   0  0  0  0  0  0
    2.8671   -0.3036    0.4395 C   0  0  0  0  0  0
    0.4395    1.9022    2.0592 O   0  0  0  0  0  0
    0.4205    3.1253    2.7916 C   0  0  0  0  0  0
   -5.2831   -1.8769   -1.8240 O   0  0  0  0  0  0
    0.7873   -2.2034    1.7133 H   0  0  0  0  0  0
   -3.5963   -3.0646   -0.2590 H   0  0  0  0  0  0
   -4.3240    0.5035   -2.5640 H   0  0  0  0  0  0
   -2.1448    1.4200   -1.8487 H   0  0  0  0  0  0
    2.9413    2.9774    2.4996 H   0  0  0  0  0  0
    5.0271    1.9982    1.6944 H   0  0  0  0  0  0
    5.0127   -0.1016    0.3740 H   0  0  0  0  0  0
    2.8789   -1.2213   -0.1475 H   0  0  0  0  0  0
   -0.6233    3.3567    3.0243 H   0  0  0  0  0  0
    0.8191    3.9503    2.1922 H   0  0  0  0  0  0
    0.9583    3.0236    3.7399 H   0  0  0  0  0  0
   -5.7393   -1.2404   -2.4156 H   0  0  0  0  0  0
  1  2  2  0  0  0
  1 11  1  0  0  0
  1 12  1  0  0  0
  2  3  1  0  0  0
  2 21  1  0  0  0
  3  4  2  0  0  0
  3  5  1  0  0  0
  5  6  2  0  0  0
  5 10  1  0  0  0
  6  7  1  0  0  0
  6 22  1  0  0  0
  7  8  2  0  0  0
  7 20  1  0  0  0
  8  9  1  0  0  0
  8 23  1  0  0  0
  9 10  2  0  0  0
  9 24  1  0  0  0
 10 11  1  0  0  0
 12 13  2  0  0  0
 12 17  1  0  0  0
 13 14  1  0  0  0
 13 18  1  0  0  0
 14 15  2  0  0  0
 14 25  1  0  0  0
 15 16  1  0  0  0
 15 26  1  0  0  0
 16 17  2  0  0  0
 16 27  1  0  0  0
 17 28  1  0  0  0
 18 19  1  0  0  0
 19 29  1  0  0  0
 19 30  1  0  0  0
 19 31  1  0  0  0
 20 32  1  0  0  0
M  END
>  <Name>
tox-395

>  <substance>
6-Hydroxy-2'-methoxyflavone

>  <CASRN>
61546-59-6

>  <from_NCI>
0

>  <RBA>
0.000000

>  <method>
RUC

>  <chemical_class>
Flavone

>  <set>
1

$$$$
tox-396
  Cerius2 12190218273D 1   1.00000                          
 Structure written by MMmdl.
 34 37  0  0  0  0  0  0  0  0999 V2000
   -3.6713   -1.1587    0.1186 C   0  0  0  0  0  0
   -4.4631   -0.0285    0.2024 C   0  0  0  0  0  0
   -3.8729    1.2140    0.2579 C   0  0  0  0  0  0
   -2.4733    1.3138    0.2150 C   0  0  0  0  0  0
   -1.5937    0.1961    0.1044 C   0  0  0  0  0  0
   -0.1129    0.2302    0.0346 C   0  0  0  0  0  0
    0.7179    1.4050   -0.0337 C   0  0  0  0  0  0
    2.1245    1.3140   -0.0306 C   0  0  0  0  0  0
    2.7899    0.0976    0.0002 C   0  0  0  0  0  0
    4.1978    0.0855    0.0002 C   0  0  0  0  0  0
    4.9073   -1.1096    0.0194 C   0  0  0  0  0  0
    4.2120   -2.3051    0.0381 C   0  0  0  0  0  0
    2.8122   -2.2954    0.0382 C   0  0  0  0  0  0
    2.0437   -1.0944    0.0197 C   0  0  0  0  0  0
    0.5964   -1.0217    0.0243 C   0  0  0  0  0  0
   -0.1578   -2.2104    0.0139 C   0  0  0  0  0  0
   -1.5455   -2.2316    0.0266 C   0  0  0  0  0  0
   -2.2686   -1.0545    0.0803 C   0  0  0  0  0  0
    0.1981    2.8198   -0.1302 C   0  0  0  0  0  0
   -5.8152   -0.1818    0.2391 O   0  0  0  0  0  0
   -4.1549   -2.1347    0.0896 H   0  0  0  0  0  0
   -4.4678    2.1208    0.3406 H   0  0  0  0  0  0
   -2.1014    2.3261    0.2953 H   0  0  0  0  0  0
    2.7146    2.2325   -0.0627 H   0  0  0  0  0  0
    4.7586    1.0205   -0.0165 H   0  0  0  0  0  0
    5.9952   -1.1034    0.0191 H   0  0  0  0  0  0
    4.7493   -3.2517    0.0541 H   0  0  0  0  0  0
    2.3329   -3.2718    0.0586 H   0  0  0  0  0  0
    0.3186   -3.1879   -0.0130 H   0  0  0  0  0  0
   -2.0463   -3.2000    0.0095 H   0  0  0  0  0  0
   -0.2441    3.1297    0.8209 H   0  0  0  0  0  0
   -0.5058    2.9162   -0.9620 H   0  0  0  0  0  0
    0.9994    3.5368   -0.3459 H   0  0  0  0  0  0
   -6.2267    0.7070    0.3001 H   0  0  0  0  0  0
  1  2  2  0  0  0
  1 18  1  0  0  0
  1 21  1  0  0  0
  2  3  1  0  0  0
  2 20  1  0  0  0
  3  4  2  0  0  0
  3 22  1  0  0  0
  4  5  1  0  0  0
  4 23  1  0  0  0
  5  6  2  0  0  0
  5 18  1  0  0  0
  6  7  1  0  0  0
  6 15  1  0  0  0
  7  8  2  0  0  0
  7 19  1  0  0  0
  8  9  1  0  0  0
  8 24  1  0  0  0
  9 10  2  0  0  0
  9 14  1  0  0  0
 10 11  1  0  0  0
 10 25  1  0  0  0
 11 12  2  0  0  0
 11 26  1  0  0  0
 12 13  1  0  0  0
 12 27  1  0  0  0
 13 14  2  0  0  0
 13 28  1  0  0  0
 14 15  1  0  0  0
 15 16  2  0  0  0
 16 17  1  0  0  0
 16 29  1  0  0  0
 17 18  2  0  0  0
 17 30  1  0  0  0
 19 31  1  0  0  0
 19 32  1  0  0  0
 19 33  1  0  0  0
 20 34  1  0  0  0
M  END
>  <Name>
tox-396

>  <substance>
2-Hydroxy-5-methylchrysene

>  <CASRN>


>  <from_NCI>
0

>  <RBA>
20.000000

>  <method>
GST-hERadef

>  <chemical_class>
Polycyclic aromatic hydrocarbon

>  <set>
0

$$$$
tox-397
  Cerius2 12190218273D 1   1.00000                          
 Structure written by MMmdl.
 34 37  0  0  0  0  0  0  0  0999 V2000
   -4.2318   -1.1636    0.0360 C   0  0  0  0  0  0
   -5.0421   -0.0399    0.0926 C   0  0  0  0  0  0
   -4.4476    1.2037    0.1539 C   0  0  0  0  0  0
   -3.0488    1.3129    0.1431 C   0  0  0  0  0  0
   -2.1611    0.2002    0.0608 C   0  0  0  0  0  0
   -0.6791    0.2414    0.0251 C   0  0  0  0  0  0
    0.1471    1.4200   -0.0309 C   0  0  0  0  0  0
    1.5538    1.3365    0.0041 C   0  0  0  0  0  0
    2.2246    0.1238    0.0569 C   0  0  0  0  0  0
    3.6320    0.1196    0.0883 C   0  0  0  0  0  0
    4.3357   -1.0736    0.1306 C   0  0  0  0  0  0
    3.6575   -2.2756    0.1419 C   0  0  0  0  0  0
    2.2572   -2.2705    0.1106 C   0  0  0  0  0  0
    1.4836   -1.0724    0.0671 C   0  0  0  0  0  0
    0.0364   -1.0070    0.0387 C   0  0  0  0  0  0
   -0.7117   -2.1994    0.0188 C   0  0  0  0  0  0
   -2.0991   -2.2272    0.0002 C   0  0  0  0  0  0
   -2.8288   -1.0533    0.0294 C   0  0  0  0  0  0
   -0.3779    2.8316   -0.1460 C   0  0  0  0  0  0
    5.6965   -1.0223    0.1599 O   0  0  0  0  0  0
   -4.7112   -2.1428    0.0029 H   0  0  0  0  0  0
   -6.1250   -0.1387    0.1005 H   0  0  0  0  0  0
   -5.0608    2.1013    0.2163 H   0  0  0  0  0  0
   -2.6853    2.3282    0.2247 H   0  0  0  0  0  0
    2.1394    2.2581   -0.0202 H   0  0  0  0  0  0
    4.1869    1.0569    0.0782 H   0  0  0  0  0  0
    4.1864   -3.2252    0.1757 H   0  0  0  0  0  0
    1.7813   -3.2486    0.1264 H   0  0  0  0  0  0
   -0.2304   -3.1750    0.0089 H   0  0  0  0  0  0
   -2.5954   -3.1978   -0.0221 H   0  0  0  0  0  0
   -0.8450    3.1428    0.7926 H   0  0  0  0  0  0
   -1.0617    2.9205   -0.9953 H   0  0  0  0  0  0
    0.4244    3.5522   -0.3448 H   0  0  0  0  0  0
    6.0410   -1.9407    0.1884 H   0  0  0  0  0  0
  1  2  2  0  0  0
  1 18  1  0  0  0
  1 21  1  0  0  0
  2  3  1  0  0  0
  2 22  1  0  0  0
  3  4  2  0  0  0
  3 23  1  0  0  0
  4  5  1  0  0  0
  4 24  1  0  0  0
  5  6  2  0  0  0
  5 18  1  0  0  0
  6  7  1  0  0  0
  6 15  1  0  0  0
  7  8  2  0  0  0
  7 19  1  0  0  0
  8  9  1  0  0  0
  8 25  1  0  0  0
  9 10  2  0  0  0
  9 14  1  0  0  0
 10 11  1  0  0  0
 10 26  1  0  0  0
 11 12  2  0  0  0
 11 20  1  0  0  0
 12 13  1  0  0  0
 12 27  1  0  0  0
 13 14  2  0  0  0
 13 28  1  0  0  0
 14 15  1  0  0  0
 15 16  2  0  0  0
 16 17  1  0  0  0
 16 29  1  0  0  0
 17 18  2  0  0  0
 17 30  1  0  0  0
 19 31  1  0  0  0
 19 32  1  0  0  0
 19 33  1  0  0  0
 20 34  1  0  0  0
M  END
>  <Name>
tox-397

>  <substance>
8-Hydroxy-5-methylchrysene

>  <CASRN>


>  <from_NCI>
0

>  <RBA>
3.100000

>  <method>
GST-hERadef

>  <chemical_class>
Polycyclic aromatic hydrocarbon

>  <set>
0

$$$$
tox-398
  Cerius2 12190218273D 1   1.00000                          
 Structure written by MMmdl.
 51 54  0  0  0  0  0  0  0  0999 V2000
    0.5479    1.8939   -2.7270 C   0  0  0  0  0  0
    0.3683    0.3504   -2.7905 C   0  0  0  0  0  0
   -0.8265    2.4852   -2.3301 C   0  0  0  0  0  0
    0.9779    2.1691   -4.2381 C   0  0  0  0  0  0
   -0.0411   -0.2604   -1.4449 C   0  0  0  0  0  0
    1.6566   -0.1344   -3.4614 C   0  0  0  0  0  0
   -1.3783    1.8856   -1.0223 C   0  0  0  0  0  0
    1.5055    3.3769   -4.4236 O   0  0  0  0  0  0
    1.9283    0.9162   -4.5985 C   0  0  0  0  0  0
   -1.4167    0.3363   -1.0207 C   0  0  0  0  0  0
   -0.1612   -1.7863   -1.4997 C   0  0  0  0  0  0
    3.2324    1.1426   -4.6558 O   0  0  0  0  0  0
   -1.9239   -0.2972    0.2747 C   0  0  0  0  0  0
   -0.4292   -2.3384   -0.1024 C   0  0  0  0  0  0
   -1.4802   -1.5753    0.6685 C   0  0  0  0  0  0
   -2.9073    0.3300    1.0581 C   0  0  0  0  0  0
   -1.9841   -2.1590    1.8461 C   0  0  0  0  0  0
   -3.4074   -0.2660    2.2231 C   0  0  0  0  0  0
   -2.9437   -1.5127    2.6257 C   0  0  0  0  0  0
   -3.3431   -2.2007    3.7375 O   0  0  0  0  0  0
   -4.3191   -1.5699    4.5655 C   0  0  0  0  0  0
    1.6063    2.3421   -1.6702 C   0  0  0  0  0  0
    1.5166    0.3115   -5.9659 C   0  0  0  0  0  0
   -0.4476    0.1215   -3.4959 H   0  0  0  0  0  0
   -1.5559    2.2965   -3.1287 H   0  0  0  0  0  0
   -0.7571    3.5751   -2.2293 H   0  0  0  0  0  0
    0.0506    1.9662   -4.8026 H   0  0  0  0  0  0
    0.7154   -0.0213   -0.6872 H   0  0  0  0  0  0
    1.5321   -1.1472   -3.8639 H   0  0  0  0  0  0
    2.4659   -0.1864   -2.7202 H   0  0  0  0  0  0
   -2.3889    2.2890   -0.8894 H   0  0  0  0  0  0
   -0.7940    2.2454   -0.1671 H   0  0  0  0  0  0
   -2.1544    0.0450   -1.7847 H   0  0  0  0  0  0
    0.7556   -2.2439   -1.8869 H   0  0  0  0  0  0
   -0.9740   -2.0752   -2.1785 H   0  0  0  0  0  0
    0.5015   -2.3074    0.4785 H   0  0  0  0  0  0
   -0.7260   -3.3904   -0.1926 H   0  0  0  0  0  0
   -3.3165    1.2983    0.7767 H   0  0  0  0  0  0
   -1.6203   -3.1382    2.1579 H   0  0  0  0  0  0
   -4.1627    0.2772    2.7849 H   0  0  0  0  0  0
   -4.5240   -2.2392    5.4066 H   0  0  0  0  0  0
   -5.2576   -1.4193    4.0219 H   0  0  0  0  0  0
   -3.9393   -0.6273    4.9733 H   0  0  0  0  0  0
    1.6742    3.4356   -1.6355 H   0  0  0  0  0  0
    2.6063    1.9633   -1.8991 H   0  0  0  0  0  0
    1.3656    2.0143   -0.6563 H   0  0  0  0  0  0
    2.1066   -0.5792   -6.2206 H   0  0  0  0  0  0
    1.6419    1.0362   -6.7810 H   0  0  0  0  0  0
    0.4633    0.0064   -5.9589 H   0  0  0  0  0  0
    1.7163    3.4714   -5.2416 H   0  0  0  0  0  0
    3.6369    0.4211   -4.8515 H   0  0  0  0  0  0
  1  2  1  0  0  0
  1  3  1  0  0  0
  1  4  1  0  0  0
  1 22  1  0  0  0
  2  5  1  0  0  0
  2  6  1  0  0  0
  2 24  1  0  0  0
  3  7  1  0  0  0
  3 25  1  0  0  0
  3 26  1  0  0  0
  4  8  1  0  0  0
  4  9  1  0  0  0
  4 27  1  0  0  0
  5 10  1  0  0  0
  5 11  1  0  0  0
  5 28  1  0  0  0
  6  9  1  0  0  0
  6 29  1  0  0  0
  6 30  1  0  0  0
  7 10  1  0  0  0
  7 31  1  0  0  0
  7 32  1  0  0  0
  8 50  1  0  0  0
  9 12  1  0  0  0
  9 23  1  0  0  0
 10 13  1  0  0  0
 10 33  1  0  0  0
 11 14  1  0  0  0
 11 34  1  0  0  0
 11 35  1  0  0  0
 12 51  1  0  0  0
 13 15  2  0  0  0
 13 16  1  0  0  0
 14 15  1  0  0  0
 14 36  1  0  0  0
 14 37  1  0  0  0
 15 17  1  0  0  0
 16 18  2  0  0  0
 16 38  1  0  0  0
 17 19  2  0  0  0
 17 39  1  0  0  0
 18 19  1  0  0  0
 18 40  1  0  0  0
 19 20  1  0  0  0
 20 21  1  0  0  0
 21 41  1  0  0  0
 21 42  1  0  0  0
 21 43  1  0  0  0
 22 44  1  0  0  0
 22 45  1  0  0  0
 22 46  1  0  0  0
 23 47  1  0  0  0
 23 48  1  0  0  0
 23 49  1  0  0  0
M  END
>  <Name>
tox-398

>  <substance>
16b-Hydroxy-16-methyl-17b-estradiol 3-methyl ether

>  <CASRN>
3434-79-5

>  <from_NCI>
1

>  <RBA>
0.030000

>  <method>
RUC

>  <chemical_class>
Steroid, nonphenolic

>  <set>
1

$$$$
tox-399
  Cerius2 12190218273D 1   1.00000                          
 Structure written by MMmdl.
 58 60  0  0  0  0  0  0  0  0999 V2000
    3.7194    3.7375   -1.6483 C   0  0  0  0  0  0
    3.5727    2.3435   -1.5393 C   0  0  0  0  0  0
    3.4005    1.7489   -0.2905 C   0  0  0  0  0  0
    3.3696    2.5705    0.8351 C   0  0  0  0  0  0
    3.5183    3.9623    0.7028 C   0  0  0  0  0  0
    3.6971    4.6054   -0.5383 C   0  0  0  0  0  0
    3.8270    5.8658   -0.6489 O   0  0  0  0  0  0
    3.2376    0.2781   -0.1691 C   0  0  0  0  0  0
    1.8979   -0.3313   -0.3975 C   0  0  0  0  0  0
    4.3167   -0.4908    0.1473 C   0  0  0  0  0  0
    4.2118   -1.9640    0.2949 C   0  0  0  0  0  0
    5.7379    0.0263    0.3353 C   0  0  0  0  0  0
    6.1463    0.1141    1.8017 C   0  0  0  0  0  0
    3.6622   -2.5244    1.4562 C   0  0  0  0  0  0
    3.5662   -3.9102    1.5940 C   0  0  0  0  0  0
    4.0148   -4.7452    0.5714 C   0  0  0  0  0  0
    4.5641   -4.1979   -0.5871 C   0  0  0  0  0  0
    4.6652   -2.8117   -0.7241 C   0  0  0  0  0  0
    0.9022   -0.2305    0.5822 C   0  0  0  0  0  0
   -0.3685   -0.7800    0.3699 C   0  0  0  0  0  0
   -0.6624   -1.4307   -0.8291 C   0  0  0  0  0  0
    0.3297   -1.5336   -1.8078 C   0  0  0  0  0  0
    1.5993   -0.9849   -1.5981 C   0  0  0  0  0  0
   -1.8624   -2.0012   -1.1601 O   0  0  0  0  0  0
   -2.9397   -1.8236   -0.2279 C   0  0  0  0  0  0
   -4.2108   -2.4693   -0.8126 C   0  0  0  0  0  0
   -5.3774   -2.4523    0.1006 N   0  0  0  0  0  0
   -6.4543   -3.2843   -0.4584 C   0  0  0  0  0  0
   -5.8801   -1.0851    0.2988 C   0  0  0  0  0  0
    3.8529    4.1503   -2.6525 H   0  0  0  0  0  0
    3.5996    1.7359   -2.4422 H   0  0  0  0  0  0
    3.2296    2.1446    1.8268 H   0  0  0  0  0  0
    3.4879    4.5576    1.6199 H   0  0  0  0  0  0
    5.8692    1.0126   -0.1220 H   0  0  0  0  0  0
    6.4474   -0.6217   -0.1946 H   0  0  0  0  0  0
    7.1497    0.5450    1.8859 H   0  0  0  0  0  0
    6.1700   -0.8736    2.2733 H   0  0  0  0  0  0
    5.4599    0.7485    2.3713 H   0  0  0  0  0  0
    3.3066   -1.8836    2.2606 H   0  0  0  0  0  0
    3.1395   -4.3372    2.4992 H   0  0  0  0  0  0
    3.9336   -5.8257    0.6771 H   0  0  0  0  0  0
    4.9125   -4.8503   -1.3852 H   0  0  0  0  0  0
    5.0930   -2.3981   -1.6356 H   0  0  0  0  0  0
    1.1079    0.2743    1.5246 H   0  0  0  0  0  0
   -1.1006   -0.6786    1.1665 H   0  0  0  0  0  0
    0.1181   -2.0414   -2.7469 H   0  0  0  0  0  0
    2.3523   -1.0738   -2.3791 H   0  0  0  0  0  0
   -3.1053   -0.7533   -0.0643 H   0  0  0  0  0  0
   -2.6910   -2.3188    0.7189 H   0  0  0  0  0  0
   -3.9566   -3.5110   -1.0517 H   0  0  0  0  0  0
   -4.4533   -1.9974   -1.7737 H   0  0  0  0  0  0
   -7.3093   -3.3145    0.2265 H   0  0  0  0  0  0
   -6.1179   -4.3199   -0.5817 H   0  0  0  0  0  0
   -6.8030   -2.9137   -1.4290 H   0  0  0  0  0  0
   -6.7657   -1.0930    0.9451 H   0  0  0  0  0  0
   -6.1502   -0.6045   -0.6483 H   0  0  0  0  0  0
   -5.1387   -0.4625    0.8087 H   0  0  0  0  0  0
    3.7883    6.2233    0.1213 H   0  0  0  0  0  0
  1  2  2  0  0  0
  1  6  1  0  0  0
  1 30  1  0  0  0
  2  3  1  0  0  0
  2 31  1  0  0  0
  3  4  2  0  0  0
  3  8  1  0  0  0
  4  5  1  0  0  0
  4 32  1  0  0  0
  5  6  2  0  0  0
  5 33  1  0  0  0
  6  7  1  0  0  0
  7 58  1  0  0  0
  8  9  1  0  0  0
  8 10  2  0  0  0
  9 19  2  0  0  0
  9 23  1  0  0  0
 10 11  1  0  0  0
 10 12  1  0  0  0
 11 14  2  0  0  0
 11 18  1  0  0  0
 12 13  1  0  0  0
 12 34  1  0  0  0
 12 35  1  0  0  0
 13 36  1  0  0  0
 13 37  1  0  0  0
 13 38  1  0  0  0
 14 15  1  0  0  0
 14 39  1  0  0  0
 15 16  2  0  0  0
 15 40  1  0  0  0
 16 17  1  0  0  0
 16 41  1  0  0  0
 17 18  2  0  0  0
 17 42  1  0  0  0
 18 43  1  0  0  0
 19 20  1  0  0  0
 19 44  1  0  0  0
 20 21  2  0  0  0
 20 45  1  0  0  0
 21 22  1  0  0  0
 21 24  1  0  0  0
 22 23  2  0  0  0
 22 46  1  0  0  0
 23 47  1  0  0  0
 24 25  1  0  0  0
 25 26  1  0  0  0
 25 48  1  0  0  0
 25 49  1  0  0  0
 26 27  1  0  0  0
 26 50  1  0  0  0
 26 51  1  0  0  0
 27 28  1  0  0  0
 27 29  1  0  0  0
 28 52  1  0  0  0
 28 53  1  0  0  0
 28 54  1  0  0  0
 29 55  1  0  0  0
 29 56  1  0  0  0
 29 57  1  0  0  0
M  END
>  <Name>
tox-399

>  <substance>
4-Hydroxytamoxifen

>  <CASRN>
68047-06-3

>  <from_NCI>
1

>  <RBA>
152.000000

>  <method>
GST-hERadef,GST-mERadef,hERa,hERa,hERa,hERa-FP,hERa-FP,hERa-FP,MCF-7 cytosol,MUC,RUC

>  <chemical_class>
Triphenylethylene

>  <set>
0

$$$$
tox-400
  Cerius2 12190218273D 1   1.00000                          
 Structure written by MMmdl.
 23 24  0  0  0  0  0  0  0  0999 V2000
   -0.0817    0.6897   -0.0254 C   0  0  0  0  0  0
   -0.0912   -0.7085    0.0268 C   0  0  0  0  0  0
    1.1536    1.3767   -0.0313 C   0  0  0  0  0  0
   -1.3654    1.4874   -0.0131 C   0  0  0  0  0  0
    1.1309   -1.3822    0.0337 C   0  0  0  0  0  0
   -1.3773   -1.4973    0.0132 C   0  0  0  0  0  0
    2.4082    0.7336   -0.0139 C   0  0  0  0  0  0
   -2.5945    0.6579   -0.3829 C   0  0  0  0  0  0
    2.3418   -0.6708    0.0162 C   0  0  0  0  0  0
   -2.5998   -0.6589    0.3834 C   0  0  0  0  0  0
    3.5086    1.3708   -0.0246 O   0  0  0  0  0  0
    1.1244    2.4711   -0.0508 H   0  0  0  0  0  0
   -1.2869    2.3301   -0.7102 H   0  0  0  0  0  0
   -1.4971    1.9009    0.9946 H   0  0  0  0  0  0
    1.1594   -2.4714    0.0533 H   0  0  0  0  0  0
   -1.3047   -2.3414    0.7093 H   0  0  0  0  0  0
   -1.5123   -1.9091   -0.9948 H   0  0  0  0  0  0
   -2.5967    0.4546   -1.4613 H   0  0  0  0  0  0
   -3.5034    1.2285   -0.1616 H   0  0  0  0  0  0
    3.2665   -1.2554    0.0270 H   0  0  0  0  0  0
   -2.6004   -0.4555    1.4619 H   0  0  0  0  0  0
   -3.5132   -1.2223    0.1621 H   0  0  0  0  0  0
    4.1554    0.8195   -0.0109 H   0  0  0  0  0  0
  1  2  2  0  0  0
  1  3  1  0  0  0
  1  4  1  0  0  0
  2  5  1  0  0  0
  2  6  1  0  0  0
  3  7  2  0  0  0
  3 12  1  0  0  0
  4  8  1  0  0  0
  4 13  1  0  0  0
  4 14  1  0  0  0
  5  9  2  0  0  0
  5 15  1  0  0  0
  6 10  1  0  0  0
  6 16  1  0  0  0
  6 17  1  0  0  0
  7  9  1  0  0  0
  7 11  1  0  0  0
  8 10  1  0  0  0
  8 18  1  0  0  0
  8 19  1  0  0  0
  9 20  1  0  0  0
 10 21  1  0  0  0
 10 22  1  0  0  0
 11 23  1  0  0  0
M  END
>  <Name>
tox-400

>  <substance>
6-Hydroxytetralin

>  <CASRN>
1125-78-6

>  <from_NCI>
1

>  <RBA>
0.000000

>  <method>
RUC

>  <chemical_class>
Polycyclic aromatic hydrocarbon; Phenol

>  <set>
1

$$$$
tox-401
  Cerius2 12190218273D 1   1.00000                          
 Structure written by MMmdl.
 93 96  0  0  0  0  0  0  0  0999 V2000
   -7.3130   -6.4475    3.2661 C   0  0  0  0  0  0
   -7.1633   -7.3815    2.2295 C   0  0  0  0  0  0
   -5.8254   -7.6330    1.8712 C   0  0  0  0  0  0
   -6.2262   -5.8258    3.9074 C   0  0  0  0  0  0
   -4.9051   -6.1186    3.5512 C   0  0  0  0  0  0
   -4.7099   -7.0142    2.4884 C   0  0  0  0  0  0
   -3.3278   -7.3960    2.0038 C   0  0  0  0  0  0
   -2.2213   -6.3853    2.3883 C   0  0  0  0  0  0
   -3.7288   -5.4237    4.2344 C   0  0  0  0  0  0
   -2.3764   -6.1327    3.9111 C   0  0  0  0  0  0
   -2.6982   -4.5854    6.4571 C   0  0  0  0  0  0
   -3.9113   -5.2350    5.7651 C   0  0  0  0  0  0
   -1.3801   -5.3226    6.1466 C   0  0  0  0  0  0
   -1.2369   -5.3715    4.5944 C   0  0  0  0  0  0
    0.1987   -5.8481    4.3939 C   0  0  0  0  0  0
    0.9815   -5.2088    5.5632 C   0  0  0  0  0  0
   -0.0692   -4.5142    6.4844 C   0  0  0  0  0  0
   -8.1498   -7.9473    1.6606 O   0  0  0  0  0  0
   -1.4175   -6.7390    6.8023 C   0  0  0  0  0  0
    0.3188   -4.5968    7.7458 O   0  0  0  0  0  0
   -2.2817   -5.1574    1.4415 C   0  0  0  0  0  0
   -0.9657   -4.3850    1.3121 C   0  0  0  0  0  0
   -1.0487   -3.3170    0.2162 C   0  0  0  0  0  0
    0.2804   -2.5734    0.0688 C   0  0  0  0  0  0
    0.2094   -1.5090   -1.0275 C   0  0  0  0  0  0
    1.5534   -0.7980   -1.1946 C   0  0  0  0  0  0
    1.4915    0.2689   -2.2888 C   0  0  0  0  0  0
    2.8476    0.9531   -2.4703 C   0  0  0  0  0  0
    2.7938    2.0249   -3.5600 C   0  0  0  0  0  0
    4.1565    2.6945   -3.7457 C   0  0  0  0  0  0
    4.1415    3.7737   -4.8198 C   0  0  0  0  0  0
    3.1056    4.0547   -5.4304 O   0  0  0  0  0  0
    5.3425    4.4272   -5.0789 N   0  0  0  0  0  0
    5.3742    5.4865   -6.0927 C   0  0  0  0  0  0
    6.5974    4.1839   -4.3679 C   0  0  0  0  0  0
    5.1005    6.8638   -5.4848 C   0  0  0  0  0  0
    5.1353    7.9585   -6.5502 C   0  0  0  0  0  0
    4.8642    9.3283   -5.9494 C   0  0  0  0  0  0
   -8.3166   -6.1751    3.6065 H   0  0  0  0  0  0
   -5.6259   -8.3474    1.0656 H   0  0  0  0  0  0
   -6.4508   -5.1026    4.6891 H   0  0  0  0  0  0
   -3.3380   -7.5392    0.9162 H   0  0  0  0  0  0
   -3.0857   -8.3727    2.4444 H   0  0  0  0  0  0
   -1.2644   -6.8932    2.2096 H   0  0  0  0  0  0
   -3.6927   -4.4112    3.8087 H   0  0  0  0  0  0
   -2.4089   -7.1341    4.3612 H   0  0  0  0  0  0
   -2.8711   -4.5522    7.5395 H   0  0  0  0  0  0
   -2.6278   -3.5417    6.1243 H   0  0  0  0  0  0
   -4.1394   -6.1996    6.2340 H   0  0  0  0  0  0
   -4.7763   -4.5923    5.9663 H   0  0  0  0  0  0
   -1.2850   -4.3356    4.2295 H   0  0  0  0  0  0
    0.6137   -5.5375    3.4315 H   0  0  0  0  0  0
    0.2690   -6.9404    4.4421 H   0  0  0  0  0  0
    1.6997   -4.4699    5.1855 H   0  0  0  0  0  0
    1.5676   -5.9863    6.0718 H   0  0  0  0  0  0
   -0.2138   -3.5096    6.0539 H   0  0  0  0  0  0
   -0.5012   -7.3084    6.6191 H   0  0  0  0  0  0
   -2.2498   -7.3528    6.4500 H   0  0  0  0  0  0
   -1.5359   -6.6556    7.8891 H   0  0  0  0  0  0
   -3.0839   -4.4696    1.7259 H   0  0  0  0  0  0
   -2.5414   -5.5120    0.4350 H   0  0  0  0  0  0
   -0.1534   -5.0823    1.0753 H   0  0  0  0  0  0
   -0.7142   -3.8924    2.2533 H   0  0  0  0  0  0
   -1.8463   -2.6040    0.4577 H   0  0  0  0  0  0
   -1.3117   -3.7879   -0.7388 H   0  0  0  0  0  0
    1.0759   -3.2908   -0.1674 H   0  0  0  0  0  0
    0.5451   -2.1005    1.0224 H   0  0  0  0  0  0
   -0.5677   -0.7763   -0.7789 H   0  0  0  0  0  0
   -0.0784   -1.9768   -1.9769 H   0  0  0  0  0  0
    2.3278   -1.5338   -1.4438 H   0  0  0  0  0  0
    1.8439   -0.3329   -0.2447 H   0  0  0  0  0  0
    0.7324    1.0172   -2.0301 H   0  0  0  0  0  0
    1.1833   -0.1915   -3.2353 H   0  0  0  0  0  0
    3.6039    0.2029   -2.7315 H   0  0  0  0  0  0
    3.1588    1.4090   -1.5225 H   0  0  0  0  0  0
    2.0429    2.7805   -3.2980 H   0  0  0  0  0  0
    2.4726    1.5743   -4.5073 H   0  0  0  0  0  0
    4.8941    1.9350   -4.0289 H   0  0  0  0  0  0
    4.4634    3.1548   -2.7997 H   0  0  0  0  0  0
    4.6225    5.2712   -6.8609 H   0  0  0  0  0  0
    6.3525    5.4654   -6.5871 H   0  0  0  0  0  0
    6.8968    5.1025   -3.8556 H   0  0  0  0  0  0
    7.3637    3.9109   -5.0997 H   0  0  0  0  0  0
    6.5256    3.3854   -3.6301 H   0  0  0  0  0  0
    5.8435    7.0833   -4.7088 H   0  0  0  0  0  0
    4.1219    6.8600   -4.9890 H   0  0  0  0  0  0
    4.3866    7.7502   -7.3233 H   0  0  0  0  0  0
    6.1153    7.9685   -7.0413 H   0  0  0  0  0  0
    4.8945   10.0968   -6.7282 H   0  0  0  0  0  0
    5.6147    9.5805   -5.1934 H   0  0  0  0  0  0
    3.8769    9.3611   -5.4779 H   0  0  0  0  0  0
   -7.8648   -8.4779    1.0608 H   0  0  0  0  0  0
    1.0271   -4.1397    7.8549 H   0  0  0  0  0  0
  1  2  2  0  0  0
  1  4  1  0  0  0
  1 39  1  0  0  0
  2  3  1  0  0  0
  2 18  1  0  0  0
  3  6  2  0  0  0
  3 40  1  0  0  0
  4  5  2  0  0  0
  4 41  1  0  0  0
  5  6  1  0  0  0
  5  9  1  0  0  0
  6  7  1  0  0  0
  7  8  1  0  0  0
  7 42  1  0  0  0
  7 43  1  0  0  0
  8 10  1  0  0  0
  8 21  1  0  0  0
  8 44  1  0  0  0
  9 10  1  0  0  0
  9 12  1  0  0  0
  9 45  1  0  0  0
 10 14  1  0  0  0
 10 46  1  0  0  0
 11 12  1  0  0  0
 11 13  1  0  0  0
 11 47  1  0  0  0
 11 48  1  0  0  0
 12 49  1  0  0  0
 12 50  1  0  0  0
 13 14  1  0  0  0
 13 17  1  0  0  0
 13 19  1  0  0  0
 14 15  1  0  0  0
 14 51  1  0  0  0
 15 16  1  0  0  0
 15 52  1  0  0  0
 15 53  1  0  0  0
 16 17  1  0  0  0
 16 54  1  0  0  0
 16 55  1  0  0  0
 17 20  1  0  0  0
 17 56  1  0  0  0
 18 92  1  0  0  0
 19 57  1  0  0  0
 19 58  1  0  0  0
 19 59  1  0  0  0
 20 93  1  0  0  0
 21 22  1  0  0  0
 21 60  1  0  0  0
 21 61  1  0  0  0
 22 23  1  0  0  0
 22 62  1  0  0  0
 22 63  1  0  0  0
 23 24  1  0  0  0
 23 64  1  0  0  0
 23 65  1  0  0  0
 24 25  1  0  0  0
 24 66  1  0  0  0
 24 67  1  0  0  0
 25 26  1  0  0  0
 25 68  1  0  0  0
 25 69  1  0  0  0
 26 27  1  0  0  0
 26 70  1  0  0  0
 26 71  1  0  0  0
 27 28  1  0  0  0
 27 72  1  0  0  0
 27 73  1  0  0  0
 28 29  1  0  0  0
 28 74  1  0  0  0
 28 75  1  0  0  0
 29 30  1  0  0  0
 29 76  1  0  0  0
 29 77  1  0  0  0
 30 31  1  0  0  0
 30 78  1  0  0  0
 30 79  1  0  0  0
 31 32  2  0  0  0
 31 33  1  0  0  0
 33 34  1  0  0  0
 33 35  1  0  0  0
 34 36  1  0  0  0
 34 80  1  0  0  0
 34 81  1  0  0  0
 35 82  1  0  0  0
 35 83  1  0  0  0
 35 84  1  0  0  0
 36 37  1  0  0  0
 36 85  1  0  0  0
 36 86  1  0  0  0
 37 38  1  0  0  0
 37 87  1  0  0  0
 37 88  1  0  0  0
 38 89  1  0  0  0
 38 90  1  0  0  0
 38 91  1  0  0  0
M  END
>  <Name>
tox-401

>  <substance>
ICI 164384

>  <CASRN>
98007-99-9

>  <from_NCI>
1

>  <RBA>
69.000000

>  <method>
GST-hERadef,GST-mERadef,hERa,hERa,RUC

>  <chemical_class>
Steroid, phenolic

>  <set>
1

$$$$
tox-402
  Cerius2 12190218273D 1   1.00000                          
 Structure written by MMmdl.
 88 91  0  0  0  0  0  0  0  0999 V2000
   -6.3746   -6.2177    3.8296 C   0  0  0  0  0  0
   -6.1971   -7.2441    2.8892 C   0  0  0  0  0  0
   -4.8506   -7.5236    2.5896 C   0  0  0  0  0  0
   -5.3050   -5.5335    4.4356 C   0  0  0  0  0  0
   -3.9753   -5.8522    4.1399 C   0  0  0  0  0  0
   -3.7520   -6.8449    3.1728 C   0  0  0  0  0  0
   -2.3573   -7.2633    2.7595 C   0  0  0  0  0  0
   -1.2678   -6.2069    3.0606 C   0  0  0  0  0  0
   -2.8182   -5.0851    4.7769 C   0  0  0  0  0  0
   -1.4541   -5.8083    4.5488 C   0  0  0  0  0  0
   -1.8385   -4.0231    6.9252 C   0  0  0  0  0  0
   -3.0312   -4.7528    6.2788 C   0  0  0  0  0  0
   -0.5067   -4.7704    6.7115 C   0  0  0  0  0  0
   -0.3353   -4.9712    5.1748 C   0  0  0  0  0  0
    1.1084   -5.4470    5.0453 C   0  0  0  0  0  0
    1.8636   -4.6856    6.1581 C   0  0  0  0  0  0
    0.7893   -3.9153    6.9872 C   0  0  0  0  0  0
   -7.1682   -7.8640    2.3506 O   0  0  0  0  0  0
   -0.5395   -6.1149    7.5040 C   0  0  0  0  0  0
    1.1560   -3.8647    8.2566 O   0  0  0  0  0  0
   -1.3284   -5.0804    1.9956 C   0  0  0  0  0  0
   -0.0321   -4.2843    1.8260 C   0  0  0  0  0  0
   -0.1325   -3.3018    0.6548 C   0  0  0  0  0  0
    1.1583   -2.4965    0.4969 C   0  0  0  0  0  0
    1.0431   -1.4726   -0.6333 C   0  0  0  0  0  0
    2.3305   -0.6595   -0.7765 C   0  0  0  0  0  0
    2.2006    0.4025   -1.8693 C   0  0  0  0  0  0
    3.4858    1.2211   -2.0020 C   0  0  0  0  0  0
    3.3404    2.3065   -3.0629 C   0  0  0  0  0  0
    4.8739    3.2931   -3.1797 S   0  0  0  0  0  0
    4.2372    4.4453   -4.4468 C   0  0  0  0  0  0
    5.9334    2.4364   -3.8182 O   0  0  0  0  0  0
    5.2894    5.4966   -4.7903 C   0  0  0  0  0  0
    4.7631    6.4904   -5.8323 C   0  0  0  0  0  0
    5.8020    7.5522   -6.1814 C   0  0  0  0  0  0
    5.2861    8.5522   -7.2189 C   0  0  0  0  0  0
    6.9362    6.9336   -6.6357 F   0  0  0  0  0  0
    6.1760    8.2027   -5.0356 F   0  0  0  0  0  0
    4.1825    9.2221   -6.7874 F   0  0  0  0  0  0
    4.9430    7.9514   -8.3908 F   0  0  0  0  0  0
    6.2186    9.4963   -7.5245 F   0  0  0  0  0  0
   -7.3865   -5.9179    4.1177 H   0  0  0  0  0  0
   -4.6301   -8.3095    1.8597 H   0  0  0  0  0  0
   -5.5498   -4.7406    5.1397 H   0  0  0  0  0  0
   -2.3426   -7.5172    1.6922 H   0  0  0  0  0  0
   -2.1185   -8.1873    3.3032 H   0  0  0  0  0  0
   -0.3017   -6.7166    2.9482 H   0  0  0  0  0  0
   -2.7809   -4.1176    4.2565 H   0  0  0  0  0  0
   -1.4861   -6.7609    5.0947 H   0  0  0  0  0  0
   -2.0321   -3.8862    7.9959 H   0  0  0  0  0  0
   -1.7737   -3.0160    6.4930 H   0  0  0  0  0  0
   -3.2562   -5.6711    6.8341 H   0  0  0  0  0  0
   -3.9072   -4.1055    6.4028 H   0  0  0  0  0  0
   -0.3884   -3.9761    4.7111 H   0  0  0  0  0  0
    1.5355   -5.2274    4.0633 H   0  0  0  0  0  0
    1.1898   -6.5283    5.2025 H   0  0  0  0  0  0
    2.5812   -3.9796    5.7213 H   0  0  0  0  0  0
    2.4477   -5.4020    6.7521 H   0  0  0  0  0  0
    0.6413   -2.9613    6.4549 H   0  0  0  0  0  0
    0.3860   -6.6881    7.3927 H   0  0  0  0  0  0
   -1.3589   -6.7709    7.2014 H   0  0  0  0  0  0
   -0.6770   -5.9253    8.5750 H   0  0  0  0  0  0
   -2.1577   -4.3928    2.1887 H   0  0  0  0  0  0
   -1.5473   -5.5392    1.0219 H   0  0  0  0  0  0
    0.8036   -4.9724    1.6524 H   0  0  0  0  0  0
    0.1912   -3.7156    2.7301 H   0  0  0  0  0  0
   -0.9742   -2.6189    0.8227 H   0  0  0  0  0  0
   -0.3392   -3.8497   -0.2726 H   0  0  0  0  0  0
    1.9938   -3.1776    0.2943 H   0  0  0  0  0  0
    1.3846   -1.9785    1.4369 H   0  0  0  0  0  0
    0.2029   -0.7972   -0.4309 H   0  0  0  0  0  0
    0.8251   -1.9868   -1.5772 H   0  0  0  0  0  0
    3.1652   -1.3310   -1.0120 H   0  0  0  0  0  0
    2.5659   -0.1738    0.1782 H   0  0  0  0  0  0
    1.3631    1.0702   -1.6328 H   0  0  0  0  0  0
    1.9701   -0.0791   -2.8273 H   0  0  0  0  0  0
    4.3197    0.5556   -2.2585 H   0  0  0  0  0  0
    3.7321    1.6775   -1.0349 H   0  0  0  0  0  0
    2.5232    2.9865   -2.8016 H   0  0  0  0  0  0
    3.1376    1.8685   -4.0454 H   0  0  0  0  0  0
    3.3390    4.9239   -4.0440 H   0  0  0  0  0  0
    3.9630    3.8642   -5.3331 H   0  0  0  0  0  0
    6.1935    5.0067   -5.1726 H   0  0  0  0  0  0
    5.5830    6.0371   -3.8817 H   0  0  0  0  0  0
    3.8622    6.9756   -5.4389 H   0  0  0  0  0  0
    4.4821    5.9412   -6.7385 H   0  0  0  0  0  0
   -6.8673   -8.4474    1.8106 H   0  0  0  0  0  0
    1.8572   -3.3899    8.3303 H   0  0  0  0  0  0
  1  2  2  0  0  0
  1  4  1  0  0  0
  1 42  1  0  0  0
  2  3  1  0  0  0
  2 18  1  0  0  0
  3  6  2  0  0  0
  3 43  1  0  0  0
  4  5  2  0  0  0
  4 44  1  0  0  0
  5  6  1  0  0  0
  5  9  1  0  0  0
  6  7  1  0  0  0
  7  8  1  0  0  0
  7 45  1  0  0  0
  7 46  1  0  0  0
  8 10  1  0  0  0
  8 21  1  0  0  0
  8 47  1  0  0  0
  9 10  1  0  0  0
  9 12  1  0  0  0
  9 48  1  0  0  0
 10 14  1  0  0  0
 10 49  1  0  0  0
 11 12  1  0  0  0
 11 13  1  0  0  0
 11 50  1  0  0  0
 11 51  1  0  0  0
 12 52  1  0  0  0
 12 53  1  0  0  0
 13 14  1  0  0  0
 13 17  1  0  0  0
 13 19  1  0  0  0
 14 15  1  0  0  0
 14 54  1  0  0  0
 15 16  1  0  0  0
 15 55  1  0  0  0
 15 56  1  0  0  0
 16 17  1  0  0  0
 16 57  1  0  0  0
 16 58  1  0  0  0
 17 20  1  0  0  0
 17 59  1  0  0  0
 18 87  1  0  0  0
 19 60  1  0  0  0
 19 61  1  0  0  0
 19 62  1  0  0  0
 20 88  1  0  0  0
 21 22  1  0  0  0
 21 63  1  0  0  0
 21 64  1  0  0  0
 22 23  1  0  0  0
 22 65  1  0  0  0
 22 66  1  0  0  0
 23 24  1  0  0  0
 23 67  1  0  0  0
 23 68  1  0  0  0
 24 25  1  0  0  0
 24 69  1  0  0  0
 24 70  1  0  0  0
 25 26  1  0  0  0
 25 71  1  0  0  0
 25 72  1  0  0  0
 26 27  1  0  0  0
 26 73  1  0  0  0
 26 74  1  0  0  0
 27 28  1  0  0  0
 27 75  1  0  0  0
 27 76  1  0  0  0
 28 29  1  0  0  0
 28 77  1  0  0  0
 28 78  1  0  0  0
 29 30  1  0  0  0
 29 79  1  0  0  0
 29 80  1  0  0  0
 30 31  1  0  0  0
 30 32  2  0  0  0
 31 33  1  0  0  0
 31 81  1  0  0  0
 31 82  1  0  0  0
 33 34  1  0  0  0
 33 83  1  0  0  0
 33 84  1  0  0  0
 34 35  1  0  0  0
 34 85  1  0  0  0
 34 86  1  0  0  0
 35 36  1  0  0  0
 35 37  1  0  0  0
 35 38  1  0  0  0
 36 39  1  0  0  0
 36 40  1  0  0  0
 36 41  1  0  0  0
M  END
>  <Name>
tox-402

>  <substance>
ICI 182780

>  <CASRN>
129453-61-8

>  <from_NCI>
1

>  <RBA>
251.000000

>  <method>
hERa,RBC,RUC,RUC

>  <chemical_class>
Steroid, phenolic

>  <set>
2

$$$$
tox-403
  Cerius2 12190218273D 1   1.00000                          
 Structure written by MMmdl.
 45 46  0  0  0  0  0  0  0  0999 V2000
    0.3103    1.7980   -2.0864 C   0  0  0  0  0  0
   -0.3830    2.2866   -2.9698 O   0  0  0  0  0  0
    1.7567    2.0946   -1.9631 C   0  0  0  0  0  0
    2.8406    1.0413   -1.8707 C   0  0  0  0  0  0
    2.5387   -0.3973   -1.8863 C   0  0  0  0  0  0
    2.2346   -1.1783   -0.8297 C   0  0  0  0  0  0
    2.1251   -0.6797    0.5854 C   0  0  0  0  0  0
    1.9854   -2.6536   -0.9975 C   0  0  0  0  0  0
    2.7182    1.8889   -3.1281 C   0  0  0  0  0  0
    3.7736    2.9482   -3.3478 C   0  0  0  0  0  0
    2.2115    1.2921   -4.4216 C   0  0  0  0  0  0
   -1.9614   -1.4985   -0.1760 C   0  0  0  0  0  0
   -1.8523   -0.1414   -0.0498 N   0  0  0  0  0  0
   -2.0581    0.2486    1.2414 C   0  0  0  0  0  0
   -2.3075   -0.8819    1.9929 N   0  0  0  0  0  0
   -2.2549   -2.0874    1.1956 C   0  0  0  0  0  0
   -2.0282    1.3949    1.6696 O   0  0  0  0  0  0
   -2.5337   -0.9106    3.4226 C   0  0  0  0  0  0
   -1.3166   -1.3371    4.1262 C   0  0  0  0  0  0
   -0.3194   -1.6863    4.6981 C   0  0  0  0  0  0
   -1.8431   -2.1500   -1.2087 O   0  0  0  0  0  0
   -1.5395    0.7605   -1.1259 C   0  0  0  0  0  0
   -0.1369    1.0218   -1.0699 O   0  0  0  0  0  0
    1.9187    2.9856   -1.3620 H   0  0  0  0  0  0
    3.6787    1.2761   -1.2168 H   0  0  0  0  0  0
    2.6195   -0.8874   -2.8572 H   0  0  0  0  0  0
    1.1309   -0.9002    0.9879 H   0  0  0  0  0  0
    2.2821    0.3993    0.6704 H   0  0  0  0  0  0
    2.8702   -1.1741    1.2174 H   0  0  0  0  0  0
    2.7153   -3.2289   -0.4188 H   0  0  0  0  0  0
    2.0624   -2.9723   -2.0422 H   0  0  0  0  0  0
    0.9815   -2.9109   -0.6449 H   0  0  0  0  0  0
    4.6371    2.5216   -3.8688 H   0  0  0  0  0  0
    4.1292    3.3771   -2.4047 H   0  0  0  0  0  0
    3.3717    3.7656   -3.9558 H   0  0  0  0  0  0
    3.0284    0.7883   -4.9490 H   0  0  0  0  0  0
    1.8217    2.0811   -5.0739 H   0  0  0  0  0  0
    1.4092    0.5627   -4.2749 H   0  0  0  0  0  0
   -1.4347   -2.7298    1.5227 H   0  0  0  0  0  0
   -3.2226   -2.5926    1.2086 H   0  0  0  0  0  0
   -3.3681   -1.5897    3.6255 H   0  0  0  0  0  0
   -2.8220    0.0910    3.7586 H   0  0  0  0  0  0
    0.5664   -1.9964    5.2065 H   0  0  0  0  0  0
   -2.0922    1.6955   -0.9812 H   0  0  0  0  0  0
   -1.8006    0.2943   -2.0822 H   0  0  0  0  0  0
  1  2  2  0  0  0
  1  3  1  0  0  0
  1 23  1  0  0  0
  3  4  1  0  0  0
  3  9  1  0  0  0
  3 24  1  0  0  0
  4  5  1  0  0  0
  4  9  1  0  0  0
  4 25  1  0  0  0
  5  6  2  0  0  0
  5 26  1  0  0  0
  6  7  1  0  0  0
  6  8  1  0  0  0
  7 27  1  0  0  0
  7 28  1  0  0  0
  7 29  1  0  0  0
  8 30  1  0  0  0
  8 31  1  0  0  0
  8 32  1  0  0  0
  9 10  1  0  0  0
  9 11  1  0  0  0
 10 33  1  0  0  0
 10 34  1  0  0  0
 10 35  1  0  0  0
 11 36  1  0  0  0
 11 37  1  0  0  0
 11 38  1  0  0  0
 12 13  1  0  0  0
 12 16  1  0  0  0
 12 21  2  0  0  0
 13 14  1  0  0  0
 13 22  1  0  0  0
 14 15  1  0  0  0
 14 17  2  0  0  0
 15 16  1  0  0  0
 15 18  1  0  0  0
 16 39  1  0  0  0
 16 40  1  0  0  0
 18 19  1  0  0  0
 18 41  1  0  0  0
 18 42  1  0  0  0
 19 20  3  0  0  0
 20 43  1  0  0  0
 22 23  1  0  0  0
 22 44  1  0  0  0
 22 45  1  0  0  0
M  END
>  <Name>
tox-403

>  <substance>
Imiprothrin

>  <CASRN>
72963-72-5

>  <from_NCI>
1

>  <RBA>
0.000000

>  <method>
hERa-FP

>  <chemical_class>
Pyrethrin; Pyrethroid

>  <set>
2

$$$$
tox-404
  Cerius2 12190218273D 1   1.00000                          
 Structure written by MMmdl.
 40 42  0  0  0  0  0  0  0  0999 V2000
   -0.8700    0.2356    0.1532 C   0  0  0  0  0  0
   -0.0133   -0.8443   -0.5906 C   0  0  0  0  0  0
   -0.8800   -2.1417   -0.5761 C   0  0  0  0  0  0
   -2.2621   -1.5409   -0.6546 C   0  0  0  0  0  0
   -3.4376   -2.1812   -1.0547 C   0  0  0  0  0  0
   -4.6757   -1.5077   -1.0780 C   0  0  0  0  0  0
   -4.6263   -0.1541   -0.6625 C   0  0  0  0  0  0
   -3.4479    0.4993   -0.2531 C   0  0  0  0  0  0
   -2.2594   -0.2023   -0.2583 C   0  0  0  0  0  0
   -5.7561   -2.0720   -1.4422 O   0  0  0  0  0  0
   -0.7372   -3.0090    0.6745 C   0  0  0  0  0  0
    1.4257   -1.0532   -0.1562 C   0  0  0  0  0  0
    1.9269   -0.6569    1.0830 C   0  0  0  0  0  0
    3.2737   -0.8881    1.4243 C   0  0  0  0  0  0
    4.1938   -1.5210    0.5682 C   0  0  0  0  0  0
    3.6548   -1.9114   -0.6703 C   0  0  0  0  0  0
    2.3132   -1.6898   -1.0300 C   0  0  0  0  0  0
    5.4081   -1.7235    0.8876 O   0  0  0  0  0  0
   -0.4737    1.6638   -0.2566 C   0  0  0  0  0  0
   -0.8205    2.7012    0.8049 C   0  0  0  0  0  0
   -0.7943    0.1101    1.2400 H   0  0  0  0  0  0
    0.0390   -0.5112   -1.6426 H   0  0  0  0  0  0
   -0.6707   -2.7401   -1.4710 H   0  0  0  0  0  0
   -3.3813   -3.2300   -1.3548 H   0  0  0  0  0  0
   -5.5495    0.4337   -0.6501 H   0  0  0  0  0  0
   -3.4991    1.5385    0.0560 H   0  0  0  0  0  0
   -1.4641   -3.8291    0.6636 H   0  0  0  0  0  0
   -0.9057   -2.4358    1.5930 H   0  0  0  0  0  0
    0.2594   -3.4580    0.7315 H   0  0  0  0  0  0
    1.2962   -0.1649    1.8200 H   0  0  0  0  0  0
    3.6023   -0.5515    2.4123 H   0  0  0  0  0  0
    4.2933   -2.4132   -1.4033 H   0  0  0  0  0  0
    1.9750   -2.0246   -2.0108 H   0  0  0  0  0  0
   -0.9438    1.9422   -1.2075 H   0  0  0  0  0  0
    0.6100    1.7191   -0.4138 H   0  0  0  0  0  0
   -0.5068    3.6961    0.4728 H   0  0  0  0  0  0
   -0.3019    2.4825    1.7441 H   0  0  0  0  0  0
   -1.8923    2.7396    1.0100 H   0  0  0  0  0  0
   -6.3970   -1.5159   -1.3923 H   0  0  0  0  0  0
    5.8078   -2.1154    0.2479 H   0  0  0  0  0  0
  1  2  1  0  0  0
  1  9  1  0  0  0
  1 19  1  0  0  0
  1 21  1  0  0  0
  2  3  1  0  0  0
  2 12  1  0  0  0
  2 22  1  0  0  0
  3  4  1  0  0  0
  3 11  1  0  0  0
  3 23  1  0  0  0
  4  5  2  0  0  0
  4  9  1  0  0  0
  5  6  1  0  0  0
  5 24  1  0  0  0
  6  7  2  0  0  0
  6 10  1  0  0  0
  7  8  1  0  0  0
  7 25  1  0  0  0
  8  9  2  0  0  0
  8 26  1  0  0  0
 10 39  1  0  0  0
 11 27  1  0  0  0
 11 28  1  0  0  0
 11 29  1  0  0  0
 12 13  2  0  0  0
 12 17  1  0  0  0
 13 14  1  0  0  0
 13 30  1  0  0  0
 14 15  2  0  0  0
 14 31  1  0  0  0
 15 16  1  0  0  0
 15 18  1  0  0  0
 16 17  2  0  0  0
 16 32  1  0  0  0
 17 33  1  0  0  0
 18 40  1  0  0  0
 19 20  1  0  0  0
 19 34  1  0  0  0
 19 35  1  0  0  0
 20 36  1  0  0  0
 20 37  1  0  0  0
 20 38  1  0  0  0
M  END
>  <Name>
tox-404

>  <substance>
Indanestrol

>  <CASRN>
71855-45-3

>  <from_NCI>
1

>  <RBA>
2.300000

>  <method>
MUC,MUC

>  <chemical_class>
Indane

>  <set>
2

$$$$
tox-405
  Cerius2 12190218273D 1   1.00000                          
 Structure written by MMmdl.
 38 40  0  0  0  0  0  0  0  0999 V2000
   -0.4945    0.7070    0.2999 C   0  0  0  0  0  0
    0.1860   -0.4605    0.2669 C   0  0  0  0  0  0
   -0.6856   -1.6455   -0.1399 C   0  0  0  0  0  0
   -2.0179   -0.9632   -0.3096 C   0  0  0  0  0  0
   -3.2359   -1.5174   -0.6786 C   0  0  0  0  0  0
   -4.3364   -0.6702   -0.7693 C   0  0  0  0  0  0
   -4.2259    0.6993   -0.5015 C   0  0  0  0  0  0
   -2.9903    1.2464   -0.1364 C   0  0  0  0  0  0
   -1.8884    0.4078   -0.0451 C   0  0  0  0  0  0
    1.6208   -0.6441    0.5040 C   0  0  0  0  0  0
    2.4437   -1.1620   -0.5045 C   0  0  0  0  0  0
    3.8091   -1.3546   -0.2763 C   0  0  0  0  0  0
    4.3522   -1.0349    0.9624 C   0  0  0  0  0  0
    3.5519   -0.5263    1.9791 C   0  0  0  0  0  0
    2.1864   -0.3338    1.7486 C   0  0  0  0  0  0
    5.6878   -1.2371    1.1481 O   0  0  0  0  0  0
   -0.7330   -2.7465    0.9161 C   0  0  0  0  0  0
   -5.5332   -1.2189   -1.1299 O   0  0  0  0  0  0
   -0.0182    2.0931    0.6024 C   0  0  0  0  0  0
    0.2115    2.9117   -0.6610 C   0  0  0  0  0  0
   -0.3607   -2.0480   -1.1067 H   0  0  0  0  0  0
   -3.3300   -2.5782   -0.8905 H   0  0  0  0  0  0
   -5.0921    1.3536   -0.5748 H   0  0  0  0  0  0
   -2.9106    2.3106    0.0671 H   0  0  0  0  0  0
    2.0338   -1.4120   -1.4817 H   0  0  0  0  0  0
    4.4395   -1.7529   -1.0681 H   0  0  0  0  0  0
    3.9672   -0.2778    2.9529 H   0  0  0  0  0  0
    1.5652    0.0530    2.5552 H   0  0  0  0  0  0
    5.9170   -0.9675    2.0633 H   0  0  0  0  0  0
   -1.4320   -3.5387    0.6261 H   0  0  0  0  0  0
   -1.0571   -2.3621    1.8905 H   0  0  0  0  0  0
    0.2514   -3.2083    1.0477 H   0  0  0  0  0  0
   -6.2066   -0.5056   -1.1508 H   0  0  0  0  0  0
    0.9183    2.0689    1.1687 H   0  0  0  0  0  0
   -0.7388    2.6054    1.2508 H   0  0  0  0  0  0
    0.5738    3.9114   -0.4002 H   0  0  0  0  0  0
   -0.7102    3.0304   -1.2395 H   0  0  0  0  0  0
    0.9604    2.4398   -1.3062 H   0  0  0  0  0  0
  1  2  2  0  0  0
  1  9  1  0  0  0
  1 19  1  0  0  0
  2  3  1  0  0  0
  2 10  1  0  0  0
  3  4  1  0  0  0
  3 17  1  0  0  0
  3 21  1  0  0  0
  4  5  1  0  0  0
  4  9  2  0  0  0
  5  6  2  0  0  0
  5 22  1  0  0  0
  6  7  1  0  0  0
  6 18  1  0  0  0
  7  8  2  0  0  0
  7 23  1  0  0  0
  8  9  1  0  0  0
  8 24  1  0  0  0
 10 11  2  0  0  0
 10 15  1  0  0  0
 11 12  1  0  0  0
 11 25  1  0  0  0
 12 13  2  0  0  0
 12 26  1  0  0  0
 13 14  1  0  0  0
 13 16  1  0  0  0
 14 15  2  0  0  0
 14 27  1  0  0  0
 15 28  1  0  0  0
 16 29  1  0  0  0
 17 30  1  0  0  0
 17 31  1  0  0  0
 17 32  1  0  0  0
 18 33  1  0  0  0
 19 20  1  0  0  0
 19 34  1  0  0  0
 19 35  1  0  0  0
 20 36  1  0  0  0
 20 37  1  0  0  0
 20 38  1  0  0  0
M  END
>  <Name>
tox-405

>  <substance>
Indanyldiethylstilbestrol

>  <CASRN>


>  <from_NCI>
0

>  <RBA>
80.000000

>  <method>
MUC

>  <chemical_class>
Stilbene

>  <set>
0

$$$$
tox-407
  Cerius2 12190218273D 1   1.00000                          
 Structure written by MMmdl.
 38 40  0  0  0  0  0  0  0  0999 V2000
    0.8457   -1.9232    0.2524 C   0  0  0  0  0  0
    0.0779   -0.6125    0.0845 C   0  0  0  0  0  0
    0.8947    0.4551   -0.0636 C   0  0  0  0  0  0
    2.2732   -0.0380    0.0273 C   0  0  0  0  0  0
    3.4783    0.6311   -0.0417 C   0  0  0  0  0  0
    4.6711   -0.1095    0.0649 C   0  0  0  0  0  0
    4.7135   -1.5162    0.2388 C   0  0  0  0  0  0
    3.4542   -2.1486    0.3052 C   0  0  0  0  0  0
    2.2662   -1.4204    0.2068 C   0  0  0  0  0  0
    5.8069   -2.1596    0.3279 O   0  0  0  0  0  0
    0.5287   -2.6402    1.5626 C   0  0  0  0  0  0
   -1.3878   -0.6159    0.0250 C   0  0  0  0  0  0
   -2.0623   -1.3948   -0.9132 C   0  0  0  0  0  0
   -3.4688   -1.4123   -0.9526 C   0  0  0  0  0  0
   -4.2750   -0.6706   -0.0684 C   0  0  0  0  0  0
   -3.5567    0.0959    0.8688 C   0  0  0  0  0  0
   -2.1510    0.1272    0.9236 C   0  0  0  0  0  0
   -5.5457   -0.6929   -0.1113 O   0  0  0  0  0  0
    0.5705    1.8981   -0.2941 C   0  0  0  0  0  0
    0.7250    2.2993   -1.7553 C   0  0  0  0  0  0
    0.6703   -2.5840   -0.6047 H   0  0  0  0  0  0
    3.5242    1.7078   -0.1779 H   0  0  0  0  0  0
    5.6101    0.4495    0.0054 H   0  0  0  0  0  0
    3.3931   -3.2310    0.4352 H   0  0  0  0  0  0
    1.1566   -3.5295    1.6852 H   0  0  0  0  0  0
   -0.5158   -2.9688    1.5890 H   0  0  0  0  0  0
    0.7000   -1.9939    2.4315 H   0  0  0  0  0  0
   -1.5130   -1.9946   -1.6372 H   0  0  0  0  0  0
   -3.9398   -2.0393   -1.7154 H   0  0  0  0  0  0
   -4.0993    0.7010    1.6009 H   0  0  0  0  0  0
   -1.6701    0.7347    1.6889 H   0  0  0  0  0  0
    1.2092    2.5310    0.3335 H   0  0  0  0  0  0
   -0.4556    2.1216    0.0140 H   0  0  0  0  0  0
    0.4632    3.3544   -1.8849 H   0  0  0  0  0  0
    0.0654    1.7070   -2.3987 H   0  0  0  0  0  0
    1.7533    2.1643   -2.1055 H   0  0  0  0  0  0
    5.6413   -2.9872    0.4285 H   0  0  0  0  0  0
   -5.8586   -0.1865    0.4954 H   0  0  0  0  0  0
  1  2  1  0  0  0
  1  9  1  0  0  0
  1 11  1  0  0  0
  1 21  1  0  0  0
  2  3  2  0  0  0
  2 12  1  0  0  0
  3  4  1  0  0  0
  3 19  1  0  0  0
  4  5  2  0  0  0
  4  9  1  0  0  0
  5  6  1  0  0  0
  5 22  1  0  0  0
  6  7  2  0  0  0
  6 23  1  0  0  0
  7  8  1  0  0  0
  7 10  1  0  0  0
  8  9  2  0  0  0
  8 24  1  0  0  0
 10 37  1  0  0  0
 11 25  1  0  0  0
 11 26  1  0  0  0
 11 27  1  0  0  0
 12 13  2  0  0  0
 12 17  1  0  0  0
 13 14  1  0  0  0
 13 28  1  0  0  0
 14 15  2  0  0  0
 14 29  1  0  0  0
 15 16  1  0  0  0
 15 18  1  0  0  0
 16 17  2  0  0  0
 16 30  1  0  0  0
 17 31  1  0  0  0
 18 38  1  0  0  0
 19 20  1  0  0  0
 19 32  1  0  0  0
 19 33  1  0  0  0
 20 34  1  0  0  0
 20 35  1  0  0  0
 20 36  1  0  0  0
M  END
>  <Name>
tox-407

>  <substance>
(R )-Indenestrol A

>  <CASRN>
115217-03-3

>  <from_NCI>
1

>  <RBA>
13.000000

>  <method>
MUC

>  <chemical_class>
Stilbene

>  <set>
2

$$$$
tox-409
  Cerius2 12190218273D 1   1.00000                          
 Structure written by MMmdl.
 38 40  0  0  0  0  0  0  0  0999 V2000
    0.8366   -1.9760    0.3527 C   0  0  0  0  0  0
    0.0665   -0.6645    0.5084 C   0  0  0  0  0  0
    0.8835    0.4017    0.6715 C   0  0  0  0  0  0
    2.2620   -0.1002    0.6525 C   0  0  0  0  0  0
    3.4660    0.5575    0.8033 C   0  0  0  0  0  0
    4.6578   -0.1911    0.7565 C   0  0  0  0  0  0
    4.7002   -1.5958    0.5682 C   0  0  0  0  0  0
    3.4422   -2.2176    0.4252 C   0  0  0  0  0  0
    2.2559   -1.4811    0.4640 C   0  0  0  0  0  0
    5.7923   -2.2466    0.5344 O   0  0  0  0  0  0
    0.5705   -2.6710   -0.9803 C   0  0  0  0  0  0
   -1.4018   -0.6649    0.5385 C   0  0  0  0  0  0
   -2.0995   -1.5080    1.4022 C   0  0  0  0  0  0
   -3.5069   -1.5189    1.4162 C   0  0  0  0  0  0
   -4.2932   -0.7070    0.5777 C   0  0  0  0  0  0
   -3.5538    0.1231   -0.2854 C   0  0  0  0  0  0
   -2.1469    0.1488   -0.3131 C   0  0  0  0  0  0
   -5.5645   -0.7235    0.5970 O   0  0  0  0  0  0
    0.5552    1.8389    0.9328 C   0  0  0  0  0  0
    0.7823    2.7279   -0.2830 C   0  0  0  0  0  0
    0.6264   -2.6495    1.1918 H   0  0  0  0  0  0
    3.5122    1.6314    0.9592 H   0  0  0  0  0  0
    5.5957    0.3598    0.8780 H   0  0  0  0  0  0
    3.3804   -3.2987    0.2845 H   0  0  0  0  0  0
    1.1993   -3.5612   -1.0910 H   0  0  0  0  0  0
    0.7803   -2.0121   -1.8313 H   0  0  0  0  0  0
   -0.4735   -2.9936   -1.0547 H   0  0  0  0  0  0
   -1.5691   -2.1642    2.0904 H   0  0  0  0  0  0
   -3.9945   -2.1984    2.1214 H   0  0  0  0  0  0
   -4.0796    0.7858   -0.9789 H   0  0  0  0  0  0
   -1.6525    0.8084   -1.0235 H   0  0  0  0  0  0
    1.1551    2.2094    1.7730 H   0  0  0  0  0  0
   -0.4879    1.9422    1.2526 H   0  0  0  0  0  0
    0.5006    3.7600   -0.0503 H   0  0  0  0  0  0
    0.1808    2.3994   -1.1364 H   0  0  0  0  0  0
    1.8323    2.7308   -0.5916 H   0  0  0  0  0  0
    5.6269   -3.0717    0.4143 H   0  0  0  0  0  0
   -5.8637   -0.1703    0.0252 H   0  0  0  0  0  0
  1  2  1  0  0  0
  1  9  1  0  0  0
  1 11  1  0  0  0
  1 21  1  0  0  0
  2  3  2  0  0  0
  2 12  1  0  0  0
  3  4  1  0  0  0
  3 19  1  0  0  0
  4  5  2  0  0  0
  4  9  1  0  0  0
  5  6  1  0  0  0
  5 22  1  0  0  0
  6  7  2  0  0  0
  6 23  1  0  0  0
  7  8  1  0  0  0
  7 10  1  0  0  0
  8  9  2  0  0  0
  8 24  1  0  0  0
 10 37  1  0  0  0
 11 25  1  0  0  0
 11 26  1  0  0  0
 11 27  1  0  0  0
 12 13  2  0  0  0
 12 17  1  0  0  0
 13 14  1  0  0  0
 13 28  1  0  0  0
 14 15  2  0  0  0
 14 29  1  0  0  0
 15 16  1  0  0  0
 15 18  1  0  0  0
 16 17  2  0  0  0
 16 30  1  0  0  0
 17 31  1  0  0  0
 18 38  1  0  0  0
 19 20  1  0  0  0
 19 32  1  0  0  0
 19 33  1  0  0  0
 20 34  1  0  0  0
 20 35  1  0  0  0
 20 36  1  0  0  0
M  END
>  <Name>
tox-409

>  <substance>
(S )-Indenestrol A

>  <CASRN>
115217-04-4

>  <from_NCI>
1

>  <RBA>
285.000000

>  <method>
MUC

>  <chemical_class>
Stilbene

>  <set>
0

$$$$
tox-411
  Cerius2 12190218273D 1   1.00000                          
 Structure written by MMmdl.
 38 40  0  0  0  0  0  0  0  0999 V2000
    0.7908   -0.8444   -0.4295 C   0  0  0  0  0  0
   -0.0333    0.4404   -0.6014 C   0  0  0  0  0  0
    0.7388    1.5374   -0.7623 C   0  0  0  0  0  0
    2.1368    1.0989   -0.7262 C   0  0  0  0  0  0
    3.3104    1.8446   -0.8655 C   0  0  0  0  0  0
    4.5863    1.2376   -0.8564 C   0  0  0  0  0  0
    4.5777   -0.1716   -0.7096 C   0  0  0  0  0  0
    3.4052   -0.9355   -0.5681 C   0  0  0  0  0  0
    2.1869   -0.2846   -0.5571 C   0  0  0  0  0  0
    5.6628    1.9044   -0.9801 O   0  0  0  0  0  0
    0.3708    2.9579   -1.0157 C   0  0  0  0  0  0
   -1.5014    0.3910   -0.6380 C   0  0  0  0  0  0
   -2.1690   -0.5005   -1.4762 C   0  0  0  0  0  0
   -3.5752   -0.5587   -1.4900 C   0  0  0  0  0  0
   -4.3894    0.2511   -0.6759 C   0  0  0  0  0  0
   -3.6796    1.1304    0.1630 C   0  0  0  0  0  0
   -2.2745    1.2038    0.1903 C   0  0  0  0  0  0
   -5.6594    0.1917   -0.6954 O   0  0  0  0  0  0
    0.5048   -1.5179    0.9269 C   0  0  0  0  0  0
    1.0990   -2.9138    1.0624 C   0  0  0  0  0  0
    0.5982   -1.5283   -1.2648 H   0  0  0  0  0  0
    3.2321    2.9260   -0.9914 H   0  0  0  0  0  0
    5.5284   -0.7141   -0.7081 H   0  0  0  0  0  0
    3.4755   -2.0157   -0.4814 H   0  0  0  0  0  0
    0.8699    3.3323   -1.9159 H   0  0  0  0  0  0
    0.6663    3.5862   -0.1693 H   0  0  0  0  0  0
   -0.7029    3.0906   -1.1729 H   0  0  0  0  0  0
   -1.6164   -1.1593   -2.1440 H   0  0  0  0  0  0
   -4.0392   -1.2748   -2.1746 H   0  0  0  0  0  0
   -4.2282    1.7952    0.8364 H   0  0  0  0  0  0
   -1.8018    1.9017    0.8799 H   0  0  0  0  0  0
   -0.5790   -1.6213    1.0626 H   0  0  0  0  0  0
    0.8640   -0.8939    1.7554 H   0  0  0  0  0  0
    0.7115   -3.3969    1.9655 H   0  0  0  0  0  0
    2.1868   -2.8839    1.1555 H   0  0  0  0  0  0
    0.8355   -3.5411    0.2052 H   0  0  0  0  0  0
    6.3281    1.3762   -0.9518 H   0  0  0  0  0  0
   -5.9778    0.7512   -0.1403 H   0  0  0  0  0  0
  1  2  1  0  0  0
  1  9  1  0  0  0
  1 19  1  0  0  0
  1 21  1  0  0  0
  2  3  2  0  0  0
  2 12  1  0  0  0
  3  4  1  0  0  0
  3 11  1  0  0  0
  4  5  2  0  0  0
  4  9  1  0  0  0
  5  6  1  0  0  0
  5 22  1  0  0  0
  6  7  2  0  0  0
  6 10  1  0  0  0
  7  8  1  0  0  0
  7 23  1  0  0  0
  8  9  2  0  0  0
  8 24  1  0  0  0
 10 37  1  0  0  0
 11 25  1  0  0  0
 11 26  1  0  0  0
 11 27  1  0  0  0
 12 13  2  0  0  0
 12 17  1  0  0  0
 13 14  1  0  0  0
 13 28  1  0  0  0
 14 15  2  0  0  0
 14 29  1  0  0  0
 15 16  1  0  0  0
 15 18  1  0  0  0
 16 17  2  0  0  0
 16 30  1  0  0  0
 17 31  1  0  0  0
 18 38  1  0  0  0
 19 20  1  0  0  0
 19 32  1  0  0  0
 19 33  1  0  0  0
 20 34  1  0  0  0
 20 35  1  0  0  0
 20 36  1  0  0  0
M  END
>  <Name>
tox-411

>  <substance>
(R )-Indenestrol B

>  <CASRN>


>  <from_NCI>
0

>  <RBA>
100.000000

>  <method>
MUC

>  <chemical_class>
Stilbene

>  <set>
0

$$$$
tox-413
  Cerius2 12190218273D 1   1.00000                          
 Structure written by MMmdl.
 48 51  0  0  0  0  0  0  0  0999 V2000
   -4.2007   -2.1663   -0.2820 C   0  0  0  0  0  0
   -4.1429   -3.3903   -0.9661 C   0  0  0  0  0  0
   -2.8560   -3.7364   -1.4178 C   0  0  0  0  0  0
   -3.0740   -1.3546   -0.0548 C   0  0  0  0  0  0
   -1.8026   -1.7345   -0.4963 C   0  0  0  0  0  0
   -1.7037   -2.9377   -1.2136 C   0  0  0  0  0  0
   -0.3844   -3.4550   -1.7415 C   0  0  0  0  0  0
    0.7361   -2.4179   -1.7404 C   0  0  0  0  0  0
   -0.5825   -0.8385   -0.2988 C   0  0  0  0  0  0
    0.7400   -1.6542   -0.4126 C   0  0  0  0  0  0
    0.6645    0.8899    1.1640 C   0  0  0  0  0  0
   -0.6010    0.0262    0.9880 C   0  0  0  0  0  0
    1.9683    0.0642    1.0672 C   0  0  0  0  0  0
    1.9283   -0.6940   -0.2910 C   0  0  0  0  0  0
    3.3396   -1.2592   -0.4335 C   0  0  0  0  0  0
    4.2577   -0.2340    0.2765 C   0  0  0  0  0  0
    3.3291    0.8653    0.9000 C   0  0  0  0  0  0
    3.2424    2.0496   -0.0664 C   0  0  0  0  0  0
    3.0860    3.3553    0.2205 C   0  0  0  0  0  0
    2.9580    4.8051   -1.2230 I   0  0  0  0  0  0
   -5.1647   -4.1210   -1.1637 O   0  0  0  0  0  0
    3.8659    1.2849    2.0331 O   0  0  0  0  0  0
    2.0137   -0.9247    2.2829 C   0  0  0  0  0  0
   -5.1610   -1.8057    0.0989 H   0  0  0  0  0  0
   -2.7281   -4.6779   -1.9626 H   0  0  0  0  0  0
   -3.2318   -0.4156    0.4718 H   0  0  0  0  0  0
   -0.5153   -3.8283   -2.7644 H   0  0  0  0  0  0
   -0.0842   -4.3054   -1.1160 H   0  0  0  0  0  0
    0.5980   -1.7189   -2.5755 H   0  0  0  0  0  0
    1.6903   -2.9296   -1.9080 H   0  0  0  0  0  0
   -0.6106   -0.1327   -1.1437 H   0  0  0  0  0  0
    0.7850   -2.4007    0.3900 H   0  0  0  0  0  0
    0.6174    1.4152    2.1254 H   0  0  0  0  0  0
    0.6403    1.6629    0.3871 H   0  0  0  0  0  0
   -0.7506   -0.6118    1.8668 H   0  0  0  0  0  0
   -1.4551    0.7135    0.9670 H   0  0  0  0  0  0
    1.8056    0.0381   -1.1037 H   0  0  0  0  0  0
    3.6223   -1.3751   -1.4851 H   0  0  0  0  0  0
    3.4302   -2.2417    0.0433 H   0  0  0  0  0  0
    4.9796    0.1845   -0.4374 H   0  0  0  0  0  0
    4.8532   -0.7692    1.0302 H   0  0  0  0  0  0
    3.2966    1.7784   -1.1231 H   0  0  0  0  0  0
    3.0064    3.6974    1.2484 H   0  0  0  0  0  0
    2.9084   -1.5549    2.2761 H   0  0  0  0  0  0
    1.1554   -1.5991    2.3226 H   0  0  0  0  0  0
    2.0118   -0.3695    3.2283 H   0  0  0  0  0  0
   -4.9358   -4.8183   -1.5925 H   0  0  0  0  0  0
    4.5872    1.7029    1.8672 H   0  0  0  0  0  0
  1  2  2  0  0  0
  1  4  1  0  0  0
  1 24  1  0  0  0
  2  3  1  0  0  0
  2 21  1  0  0  0
  3  6  2  0  0  0
  3 25  1  0  0  0
  4  5  2  0  0  0
  4 26  1  0  0  0
  5  6  1  0  0  0
  5  9  1  0  0  0
  6  7  1  0  0  0
  7  8  1  0  0  0
  7 27  1  0  0  0
  7 28  1  0  0  0
  8 10  1  0  0  0
  8 29  1  0  0  0
  8 30  1  0  0  0
  9 10  1  0  0  0
  9 12  1  0  0  0
  9 31  1  0  0  0
 10 14  1  0  0  0
 10 32  1  0  0  0
 11 12  1  0  0  0
 11 13  1  0  0  0
 11 33  1  0  0  0
 11 34  1  0  0  0
 12 35  1  0  0  0
 12 36  1  0  0  0
 13 14  1  0  0  0
 13 17  1  0  0  0
 13 23  1  0  0  0
 14 15  1  0  0  0
 14 37  1  0  0  0
 15 16  1  0  0  0
 15 38  1  0  0  0
 15 39  1  0  0  0
 16 17  1  0  0  0
 16 40  1  0  0  0
 16 41  1  0  0  0
 17 18  1  0  0  0
 17 22  1  0  0  0
 18 19  2  0  0  0
 18 42  1  0  0  0
 19 20  1  0  0  0
 19 43  1  0  0  0
 21 47  1  0  0  0
 22 48  1  0  0  0
 23 44  1  0  0  0
 23 45  1  0  0  0
 23 46  1  0  0  0
M  END
>  <Name>
tox-413

>  <substance>
(E )-17a-Iodovinylestradiol

>  <CASRN>
82123-96-4

>  <from_NCI>
1

>  <RBA>
12.000000

>  <method>
MCF-7 cytosol,RUC

>  <chemical_class>
Steroid, phenolic

>  <set>
1

$$$$
tox-414
  Cerius2 12190218273D 1   1.00000                          
 Structure written by MMmdl.
 38 40  0  0  0  0  0  0  0  0999 V2000
    0.7908   -0.8446    0.4336 C   0  0  0  0  0  0
   -0.0337    0.4400    0.6058 C   0  0  0  0  0  0
    0.7382    1.5367    0.7699 C   0  0  0  0  0  0
    2.1362    1.0982    0.7358 C   0  0  0  0  0  0
    3.3095    1.8436    0.8787 C   0  0  0  0  0  0
    4.5855    1.2367    0.8712 C   0  0  0  0  0  0
    4.5772   -0.1722    0.7217 C   0  0  0  0  0  0
    3.4050   -0.9359    0.5765 C   0  0  0  0  0  0
    2.1867   -0.2851    0.5646 C   0  0  0  0  0  0
    5.6616    1.9033    0.9983 O   0  0  0  0  0  0
    0.3697    2.9569    1.0246 C   0  0  0  0  0  0
   -1.5018    0.3907    0.6393 C   0  0  0  0  0  0
   -2.1714   -0.5025    1.4742 C   0  0  0  0  0  0
   -3.5777   -0.5604    1.4850 C   0  0  0  0  0  0
   -4.3900    0.2514    0.6711 C   0  0  0  0  0  0
   -3.6783    1.1325   -0.1643 C   0  0  0  0  0  0
   -2.2732    1.2056   -0.1887 C   0  0  0  0  0  0
   -5.6600    0.1922    0.6878 O   0  0  0  0  0  0
    0.5074   -1.5162   -0.9242 C   0  0  0  0  0  0
    1.1014   -2.9122   -1.0600 C   0  0  0  0  0  0
    0.5966   -1.5296    1.2675 H   0  0  0  0  0  0
    3.2309    2.9248    1.0064 H   0  0  0  0  0  0
    5.5279   -0.7147    0.7210 H   0  0  0  0  0  0
    3.4756   -2.0158    0.4879 H   0  0  0  0  0  0
    0.6659    3.5862    0.1791 H   0  0  0  0  0  0
    0.8678    3.3304    1.9257 H   0  0  0  0  0  0
   -0.7042    3.0892    1.1809 H   0  0  0  0  0  0
   -1.6203   -1.1629    2.1417 H   0  0  0  0  0  0
   -4.0432   -1.2779    2.1670 H   0  0  0  0  0  0
   -4.2254    1.7992   -0.8372 H   0  0  0  0  0  0
   -1.7989    1.9049   -0.8758 H   0  0  0  0  0  0
    0.8687   -0.8914   -1.7512 H   0  0  0  0  0  0
   -0.5761   -1.6192   -1.0624 H   0  0  0  0  0  0
    0.7155   -3.3943   -1.9644 H   0  0  0  0  0  0
    0.8360   -3.5403   -0.2040 H   0  0  0  0  0  0
    2.1893   -2.8826   -1.1509 H   0  0  0  0  0  0
    6.3270    1.3752    0.9704 H   0  0  0  0  0  0
   -5.9771    0.7530    0.1333 H   0  0  0  0  0  0
  1  2  1  0  0  0
  1  9  1  0  0  0
  1 19  1  0  0  0
  1 21  1  0  0  0
  2  3  2  0  0  0
  2 12  1  0  0  0
  3  4  1  0  0  0
  3 11  1  0  0  0
  4  5  2  0  0  0
  4  9  1  0  0  0
  5  6  1  0  0  0
  5 22  1  0  0  0
  6  7  2  0  0  0
  6 10  1  0  0  0
  7  8  1  0  0  0
  7 23  1  0  0  0
  8  9  2  0  0  0
  8 24  1  0  0  0
 10 37  1  0  0  0
 11 25  1  0  0  0
 11 26  1  0  0  0
 11 27  1  0  0  0
 12 13  2  0  0  0
 12 17  1  0  0  0
 13 14  1  0  0  0
 13 28  1  0  0  0
 14 15  2  0  0  0
 14 29  1  0  0  0
 15 16  1  0  0  0
 15 18  1  0  0  0
 16 17  2  0  0  0
 16 30  1  0  0  0
 17 31  1  0  0  0
 18 38  1  0  0  0
 19 20  1  0  0  0
 19 32  1  0  0  0
 19 33  1  0  0  0
 20 34  1  0  0  0
 20 35  1  0  0  0
 20 36  1  0  0  0
M  END
>  <Name>
tox-414

>  <substance>
(S )-Indenestrol B

>  <CASRN>
115217-06-6

>  <from_NCI>
1

>  <RBA>
143.000000

>  <method>
MUC

>  <chemical_class>
Stilbene

>  <set>
0

$$$$
tox-415
  Cerius2 12190218273D 1   1.00000                          
 Structure written by MMmdl.
 48 51  0  0  0  0  0  0  0  0999 V2000
   -4.3924   -1.6508   -0.3926 C   0  0  0  0  0  0
   -5.6331   -2.2154   -0.3731 O   0  0  0  0  0  0
   -4.3041   -0.2689   -0.4331 C   0  0  0  0  0  0
   -3.0489    0.3447   -0.4506 C   0  0  0  0  0  0
   -3.2430   -2.4305   -0.3776 C   0  0  0  0  0  0
   -1.9737   -1.8229   -0.4035 C   0  0  0  0  0  0
   -0.7620   -2.7254   -0.3646 C   0  0  0  0  0  0
    0.5506   -2.0188   -0.6893 C   0  0  0  0  0  0
    0.6238   -0.6858    0.0598 C   0  0  0  0  0  0
    1.9818    0.0029   -0.1047 C   0  0  0  0  0  0
    3.2384   -0.7575    0.3160 C   0  0  0  0  0  0
    4.2861    0.3361    0.6011 C   0  0  0  0  0  0
    3.5834    1.7036    0.4026 C   0  0  0  0  0  0
    4.1001    2.5821    1.4137 O   0  0  0  0  0  0
    2.0785    1.3323    0.6781 C   0  0  0  0  0  0
    1.8417    1.1664    2.2098 C   0  0  0  0  0  0
    0.9960    2.2801    0.1262 C   0  0  0  0  0  0
   -0.4129    1.6571    0.1827 C   0  0  0  0  0  0
   -0.4929    0.2570   -0.4801 C   0  0  0  0  0  0
   -1.8648   -0.4140   -0.4137 C   0  0  0  0  0  0
    3.8146    2.4484   -0.8989 C   0  0  0  0  0  0
    4.2945    2.1672   -2.1202 C   0  0  0  0  0  0
    4.9694    0.4409   -2.9390 I   0  0  0  0  0  0
   -5.5291   -3.1906   -0.3465 H   0  0  0  0  0  0
   -5.2048    0.3405   -0.4558 H   0  0  0  0  0  0
   -3.0218    1.4311   -0.5012 H   0  0  0  0  0  0
   -3.3173   -3.5163   -0.3475 H   0  0  0  0  0  0
   -0.8959   -3.5561   -1.0681 H   0  0  0  0  0  0
   -0.6964   -3.1549    0.6434 H   0  0  0  0  0  0
    0.6249   -1.8469   -1.7709 H   0  0  0  0  0  0
    1.3823   -2.6767   -0.4140 H   0  0  0  0  0  0
    0.4463   -0.8968    1.1221 H   0  0  0  0  0  0
    2.0900    0.2175   -1.1783 H   0  0  0  0  0  0
    3.5769   -1.4441   -0.4658 H   0  0  0  0  0  0
    3.0624   -1.3545    1.2182 H   0  0  0  0  0  0
    5.1896    0.2177    0.0010 H   0  0  0  0  0  0
    4.6352    0.2274    1.6370 H   0  0  0  0  0  0
    3.4930    3.3481    1.4613 H   0  0  0  0  0  0
    1.9072    2.1365    2.7160 H   0  0  0  0  0  0
    2.5742    0.5055    2.6825 H   0  0  0  0  0  0
    0.8565    0.7581    2.4483 H   0  0  0  0  0  0
    1.1966    2.5273   -0.9231 H   0  0  0  0  0  0
    1.0008    3.2296    0.6748 H   0  0  0  0  0  0
   -1.0891    2.3543   -0.3258 H   0  0  0  0  0  0
   -0.7622    1.6011    1.2203 H   0  0  0  0  0  0
   -0.3057    0.4129   -1.5540 H   0  0  0  0  0  0
    3.5003    3.4936   -0.8090 H   0  0  0  0  0  0
    4.3140    2.9946   -2.8297 H   0  0  0  0  0  0
  1  2  1  0  0  0
  1  3  2  0  0  0
  1  5  1  0  0  0
  2 24  1  0  0  0
  3  4  1  0  0  0
  3 25  1  0  0  0
  4 20  2  0  0  0
  4 26  1  0  0  0
  5  6  2  0  0  0
  5 27  1  0  0  0
  6  7  1  0  0  0
  6 20  1  0  0  0
  7  8  1  0  0  0
  7 28  1  0  0  0
  7 29  1  0  0  0
  8  9  1  0  0  0
  8 30  1  0  0  0
  8 31  1  0  0  0
  9 10  1  0  0  0
  9 19  1  0  0  0
  9 32  1  0  0  0
 10 11  1  0  0  0
 10 15  1  0  0  0
 10 33  1  0  0  0
 11 12  1  0  0  0
 11 34  1  0  0  0
 11 35  1  0  0  0
 12 13  1  0  0  0
 12 36  1  0  0  0
 12 37  1  0  0  0
 13 14  1  0  0  0
 13 15  1  0  0  0
 13 21  1  0  0  0
 14 38  1  0  0  0
 15 16  1  0  0  0
 15 17  1  0  0  0
 16 39  1  0  0  0
 16 40  1  0  0  0
 16 41  1  0  0  0
 17 18  1  0  0  0
 17 42  1  0  0  0
 17 43  1  0  0  0
 18 19  1  0  0  0
 18 44  1  0  0  0
 18 45  1  0  0  0
 19 20  1  0  0  0
 19 46  1  0  0  0
 21 22  2  0  0  0
 21 47  1  0  0  0
 22 23  1  0  0  0
 22 48  1  0  0  0
M  END
>  <Name>
tox-415

>  <substance>
(Z )-17a-Iodovinylestradiol

>  <CASRN>
177159-09-0

>  <from_NCI>
0

>  <RBA>
57.000000

>  <method>
MCF-7 cytosol,RUC

>  <chemical_class>
Steroid, phenolic

>  <set>
0

$$$$
tox-416
  Cerius2 12190218273D 1   1.00000                          
 Structure written by MMmdl.
 43 46  0  0  0  0  0  0  0  0999 V2000
   -3.9892   -1.5559   -1.7681 C   0  0  0  0  0  0
   -5.1128   -2.0627   -2.3511 O   0  0  0  0  0  0
   -4.0255   -0.2483   -1.3091 C   0  0  0  0  0  0
   -2.8948    0.2988   -0.7006 C   0  0  0  0  0  0
   -2.8399   -2.3254   -1.6245 C   0  0  0  0  0  0
   -1.6923   -1.7776   -1.0242 C   0  0  0  0  0  0
   -0.4884   -2.6594   -0.8257 C   0  0  0  0  0  0
    0.7960   -1.8514   -0.7248 C   0  0  0  0  0  0
    0.6986   -0.7842    0.3759 C   0  0  0  0  0  0
    2.0255   -0.0071    0.4490 C   0  0  0  0  0  0
    3.2141   -0.7057    1.1093 C   0  0  0  0  0  0
    4.1671    0.4402    1.4861 C   0  0  0  0  0  0
    3.4197    1.7459    1.1611 C   0  0  0  0  0  0
    3.7583    2.7630    2.0909 O   0  0  0  0  0  0
    1.9253    1.3454    1.1808 C   0  0  0  0  0  0
    1.4172    1.2488    2.6395 C   0  0  0  0  0  0
    1.0155    2.2805    0.3622 C   0  0  0  0  0  0
   -0.0174    1.5004   -0.4569 C   0  0  0  0  0  0
   -0.5114    0.1734    0.1495 C   0  0  0  0  0  0
   -1.7095   -0.4492   -0.5601 C   0  0  0  0  0  0
   -0.4371    1.9684   -1.5211 O   0  0  0  0  0  0
   -4.9315   -2.9886   -2.6202 H   0  0  0  0  0  0
   -4.9283    0.3489   -1.4136 H   0  0  0  0  0  0
   -2.9462    1.3234   -0.3321 H   0  0  0  0  0  0
   -2.8251   -3.3578   -1.9697 H   0  0  0  0  0  0
   -0.3947   -3.3609   -1.6634 H   0  0  0  0  0  0
   -0.6341   -3.2498    0.0872 H   0  0  0  0  0  0
    1.0034   -1.3736   -1.6917 H   0  0  0  0  0  0
    1.6301   -2.5330   -0.5209 H   0  0  0  0  0  0
    0.5334   -1.3063    1.3289 H   0  0  0  0  0  0
    2.3373    0.2015   -0.5888 H   0  0  0  0  0  0
    3.6955   -1.4189    0.4325 H   0  0  0  0  0  0
    2.9099   -1.2551    2.0071 H   0  0  0  0  0  0
    5.0967    0.3827    0.9089 H   0  0  0  0  0  0
    4.4481    0.3803    2.5438 H   0  0  0  0  0  0
    3.7240    2.0871    0.1633 H   0  0  0  0  0  0
    3.2673    3.5657    1.8168 H   0  0  0  0  0  0
    1.4035    2.2389    3.1100 H   0  0  0  0  0  0
    2.0516    0.6078    3.2598 H   0  0  0  0  0  0
    0.4030    0.8523    2.7108 H   0  0  0  0  0  0
    1.6115    2.8614   -0.3519 H   0  0  0  0  0  0
    0.4817    2.9919    1.0013 H   0  0  0  0  0  0
   -0.9062    0.4453    1.1373 H   0  0  0  0  0  0
  1  2  1  0  0  0
  1  3  2  0  0  0
  1  5  1  0  0  0
  2 22  1  0  0  0
  3  4  1  0  0  0
  3 23  1  0  0  0
  4 20  2  0  0  0
  4 24  1  0  0  0
  5  6  2  0  0  0
  5 25  1  0  0  0
  6  7  1  0  0  0
  6 20  1  0  0  0
  7  8  1  0  0  0
  7 26  1  0  0  0
  7 27  1  0  0  0
  8  9  1  0  0  0
  8 28  1  0  0  0
  8 29  1  0  0  0
  9 10  1  0  0  0
  9 19  1  0  0  0
  9 30  1  0  0  0
 10 11  1  0  0  0
 10 15  1  0  0  0
 10 31  1  0  0  0
 11 12  1  0  0  0
 11 32  1  0  0  0
 11 33  1  0  0  0
 12 13  1  0  0  0
 12 34  1  0  0  0
 12 35  1  0  0  0
 13 14  1  0  0  0
 13 15  1  0  0  0
 13 36  1  0  0  0
 14 37  1  0  0  0
 15 16  1  0  0  0
 15 17  1  0  0  0
 16 38  1  0  0  0
 16 39  1  0  0  0
 16 40  1  0  0  0
 17 18  1  0  0  0
 17 41  1  0  0  0
 17 42  1  0  0  0
 18 19  1  0  0  0
 18 21  2  0  0  0
 19 20  1  0  0  0
 19 43  1  0  0  0
M  END
>  <Name>
tox-416

>  <substance>
11-Keto-9b-estradiol

>  <CASRN>


>  <from_NCI>
0

>  <RBA>
0.000000

>  <method>
MCF-7 cytosol

>  <chemical_class>
Steroid, phenolic

>  <set>
1

$$$$
tox-417
  Cerius2 12190218273D 1   1.00000                          
 Structure written by MMmdl.
 43 46  0  0  0  0  0  0  0  0999 V2000
   -6.7645   -4.1106   16.7436 C   0  0  0  0  0  0
   -5.3613   -4.1373   16.7315 C   0  0  0  0  0  0
   -4.8027   -4.4530   15.4792 C   0  0  0  0  0  0
   -7.5513   -4.3663   15.6055 C   0  0  0  0  0  0
   -6.9681   -4.6562   14.3680 C   0  0  0  0  0  0
   -5.5666   -4.7248   14.3173 C   0  0  0  0  0  0
   -4.8204   -5.0292   13.0379 C   0  0  0  0  0  0
   -5.6997   -5.5908   11.9231 C   0  0  0  0  0  0
   -7.8125   -4.9844   13.1396 C   0  0  0  0  0  0
   -6.9990   -4.7856   11.8260 C   0  0  0  0  0  0
   -9.9836   -4.5898   11.7945 C   0  0  0  0  0  0
   -9.1794   -4.2575   13.0660 C   0  0  0  0  0  0
   -9.1691   -4.3677   10.5024 C   0  0  0  0  0  0
   -7.8667   -5.2109   10.6378 C   0  0  0  0  0  0
   -7.2540   -5.1785    9.2414 C   0  0  0  0  0  0
   -8.5072   -5.2302    8.3792 C   0  0  0  0  0  0
   -9.8008   -5.0299    9.2095 C   0  0  0  0  0  0
  -10.7035   -4.2643    8.6129 O   0  0  0  0  0  0
   -8.8806   -2.8427   10.3338 C   0  0  0  0  0  0
   -4.6565   -3.9006   17.7630 O   0  0  0  0  0  0
   -8.4683   -5.4433    7.1671 O   0  0  0  0  0  0
   -7.2921   -3.8848   17.6750 H   0  0  0  0  0  0
   -3.7121   -4.4953   15.3883 H   0  0  0  0  0  0
   -8.6322   -4.3372   15.7277 H   0  0  0  0  0  0
   -4.0132   -5.7434   13.2407 H   0  0  0  0  0  0
   -4.3565   -4.0970   12.6912 H   0  0  0  0  0  0
   -5.9260   -6.6463   12.1224 H   0  0  0  0  0  0
   -5.1395   -5.5571   10.9823 H   0  0  0  0  0  0
   -8.0390   -6.0582   13.2308 H   0  0  0  0  0  0
   -6.7195   -3.7301   11.7197 H   0  0  0  0  0  0
  -10.8994   -3.9867   11.7763 H   0  0  0  0  0  0
  -10.3062   -5.6374   11.8539 H   0  0  0  0  0  0
   -9.0303   -3.1740   13.1440 H   0  0  0  0  0  0
   -9.8037   -4.5400   13.9217 H   0  0  0  0  0  0
   -8.1561   -6.2597   10.8214 H   0  0  0  0  0  0
   -6.6286   -6.0545    9.0514 H   0  0  0  0  0  0
   -6.7013   -4.2578    9.0395 H   0  0  0  0  0  0
  -10.0809   -6.0585    9.4888 H   0  0  0  0  0  0
   -8.3299   -2.6251    9.4129 H   0  0  0  0  0  0
   -8.3012   -2.4234   11.1596 H   0  0  0  0  0  0
   -9.8172   -2.2742   10.2959 H   0  0  0  0  0  0
  -11.0083   -4.6662    7.9287 H   0  0  0  0  0  0
   -3.8326   -3.9627   17.5636 H   0  0  0  0  0  0
  1  2  2  0  0  0
  1  4  1  0  0  0
  1 22  1  0  0  0
  2  3  1  0  0  0
  2 20  1  0  0  0
  3  6  2  0  0  0
  3 23  1  0  0  0
  4  5  2  0  0  0
  4 24  1  0  0  0
  5  6  1  0  0  0
  5  9  1  0  0  0
  6  7  1  0  0  0
  7  8  1  0  0  0
  7 25  1  0  0  0
  7 26  1  0  0  0
  8 10  1  0  0  0
  8 27  1  0  0  0
  8 28  1  0  0  0
  9 10  1  0  0  0
  9 12  1  0  0  0
  9 29  1  0  0  0
 10 14  1  0  0  0
 10 30  1  0  0  0
 11 12  1  0  0  0
 11 13  1  0  0  0
 11 31  1  0  0  0
 11 32  1  0  0  0
 12 33  1  0  0  0
 12 34  1  0  0  0
 13 14  1  0  0  0
 13 17  1  0  0  0
 13 19  1  0  0  0
 14 15  1  0  0  0
 14 35  1  0  0  0
 15 16  1  0  0  0
 15 36  1  0  0  0
 15 37  1  0  0  0
 16 17  1  0  0  0
 16 21  2  0  0  0
 17 18  1  0  0  0
 17 38  1  0  0  0
 18 42  1  0  0  0
 19 39  1  0  0  0
 19 40  1  0  0  0
 19 41  1  0  0  0
 20 43  1  0  0  0
M  END
>  <Name>
tox-417

>  <substance>
16-Ketoestradiol

>  <CASRN>
566-75-6

>  <from_NCI>
1

>  <RBA>
5.400000

>  <method>
hERa,MCF-7 cytosol,RBC

>  <chemical_class>
Steroid, phenolic

>  <set>
2

$$$$
tox-418
  Cerius2 12190218273D 1   1.00000                          
 Structure written by MMmdl.
 44 47  0  0  0  0  0  0  0  0999 V2000
   -4.5603   -0.6752   -0.3160 C   0  0  0  0  0  0
   -4.4947   -1.9118   -0.9763 C   0  0  0  0  0  0
   -3.2027   -2.2662   -1.4066 C   0  0  0  0  0  0
   -3.4361    0.1405   -0.0909 C   0  0  0  0  0  0
   -2.1596   -0.2477   -0.5103 C   0  0  0  0  0  0
   -2.0527   -1.4636   -1.2041 C   0  0  0  0  0  0
   -0.7276   -1.9898   -1.7075 C   0  0  0  0  0  0
    0.3918   -0.9515   -1.7158 C   0  0  0  0  0  0
   -0.9421    0.6521   -0.3152 C   0  0  0  0  0  0
    0.3831   -0.1623   -0.4033 C   0  0  0  0  0  0
    0.2876    2.4024    1.1336 C   0  0  0  0  0  0
   -0.9722    1.5329    0.9600 C   0  0  0  0  0  0
    1.5903    1.5783    1.0591 C   0  0  0  0  0  0
    1.5659    0.8044   -0.2887 C   0  0  0  0  0  0
    2.9823    0.2468   -0.4053 C   0  0  0  0  0  0
    3.8753    1.3740    0.1798 C   0  0  0  0  0  0
    2.9035    2.4352    0.8418 C   0  0  0  0  0  0
    1.6666    0.6299    2.2965 C   0  0  0  0  0  0
    3.4099    2.9006    1.9790 O   0  0  0  0  0  0
    5.0377    2.2999   -1.4682 I   0  0  0  0  0  0
   -5.5142   -2.6460   -1.1722 O   0  0  0  0  0  0
   -5.5248   -0.3075    0.0467 H   0  0  0  0  0  0
   -3.0686   -3.2175   -1.9324 H   0  0  0  0  0  0
   -3.5999    1.0893    0.4158 H   0  0  0  0  0  0
   -0.8474   -2.3837   -2.7241 H   0  0  0  0  0  0
   -0.4331   -2.8272   -1.0620 H   0  0  0  0  0  0
    0.2614   -0.2688   -2.5654 H   0  0  0  0  0  0
    1.3471   -1.4667   -1.8643 H   0  0  0  0  0  0
   -0.9632    1.3458   -1.1701 H   0  0  0  0  0  0
    0.4230   -0.8924    0.4147 H   0  0  0  0  0  0
    0.2299    2.9404    2.0874 H   0  0  0  0  0  0
    0.2878    3.1689    0.3476 H   0  0  0  0  0  0
   -1.1191    0.9025    1.8452 H   0  0  0  0  0  0
   -1.8295    2.2153    0.9279 H   0  0  0  0  0  0
    1.4535    1.5339   -1.1078 H   0  0  0  0  0  0
    3.2279   -0.0265   -1.4357 H   0  0  0  0  0  0
    3.0876   -0.6612    0.2000 H   0  0  0  0  0  0
    4.6020    0.9454    0.8825 H   0  0  0  0  0  0
    2.6465    3.1651    0.0580 H   0  0  0  0  0  0
    2.5934    0.0482    2.3193 H   0  0  0  0  0  0
    0.8399   -0.0832    2.3394 H   0  0  0  0  0  0
    1.6235    1.2073    3.2277 H   0  0  0  0  0  0
    4.1106    3.3523    1.8132 H   0  0  0  0  0  0
   -5.2804   -3.3512   -1.5851 H   0  0  0  0  0  0
  1  2  2  0  0  0
  1  4  1  0  0  0
  1 22  1  0  0  0
  2  3  1  0  0  0
  2 21  1  0  0  0
  3  6  2  0  0  0
  3 23  1  0  0  0
  4  5  2  0  0  0
  4 24  1  0  0  0
  5  6  1  0  0  0
  5  9  1  0  0  0
  6  7  1  0  0  0
  7  8  1  0  0  0
  7 25  1  0  0  0
  7 26  1  0  0  0
  8 10  1  0  0  0
  8 27  1  0  0  0
  8 28  1  0  0  0
  9 10  1  0  0  0
  9 12  1  0  0  0
  9 29  1  0  0  0
 10 14  1  0  0  0
 10 30  1  0  0  0
 11 12  1  0  0  0
 11 13  1  0  0  0
 11 31  1  0  0  0
 11 32  1  0  0  0
 12 33  1  0  0  0
 12 34  1  0  0  0
 13 14  1  0  0  0
 13 17  1  0  0  0
 13 18  1  0  0  0
 14 15  1  0  0  0
 14 35  1  0  0  0
 15 16  1  0  0  0
 15 36  1  0  0  0
 15 37  1  0  0  0
 16 17  1  0  0  0
 16 20  1  0  0  0
 16 38  1  0  0  0
 17 19  1  0  0  0
 17 39  1  0  0  0
 18 40  1  0  0  0
 18 41  1  0  0  0
 18 42  1  0  0  0
 19 43  1  0  0  0
 21 44  1  0  0  0
M  END
>  <Name>
tox-418

>  <substance>
16a-Iodoestradiol

>  <CASRN>
71765-94-1

>  <from_NCI>
1

>  <RBA>
100.000000

>  <method>
MCF-7 cytosol

>  <chemical_class>
Steroid, phenolic

>  <set>
0

$$$$
tox-419
  Cerius2 12190218273D 1   1.00000                          
 Structure written by MMmdl.
 43 46  0  0  0  0  0  0  0  0999 V2000
   -4.1463   -0.8517   -0.2432 C   0  0  0  0  0  0
   -4.0769   -2.0428   -0.9840 C   0  0  0  0  0  0
   -2.8143   -2.2949   -1.5530 C   0  0  0  0  0  0
   -3.0533    0.0184   -0.0704 C   0  0  0  0  0  0
   -1.8027   -0.2661   -0.6283 C   0  0  0  0  0  0
   -1.7015   -1.4369   -1.3936 C   0  0  0  0  0  0
   -0.4230   -1.7997   -2.0709 C   0  0  0  0  0  0
    0.7730   -0.8979   -1.8725 C   0  0  0  0  0  0
   -0.6125    0.6733   -0.4793 C   0  0  0  0  0  0
    0.7064   -0.1452   -0.5433 C   0  0  0  0  0  0
    0.6084    2.4363    0.9786 C   0  0  0  0  0  0
   -0.6623    1.5937    0.7687 C   0  0  0  0  0  0
    1.8874    1.5760    0.9703 C   0  0  0  0  0  0
    1.8987    0.8015   -0.3749 C   0  0  0  0  0  0
    3.3104    0.2264   -0.4490 C   0  0  0  0  0  0
    4.1937    1.2902    0.2399 C   0  0  0  0  0  0
    3.2301    2.3830    0.7981 C   0  0  0  0  0  0
    3.7201    2.8783    1.9219 O   0  0  0  0  0  0
    1.8844    0.6266    2.2079 C   0  0  0  0  0  0
   -5.0700   -2.8226   -1.1329 O   0  0  0  0  0  0
   -0.3583   -2.7833   -2.8116 O   0  0  0  0  0  0
   -5.0910   -0.5655    0.2295 H   0  0  0  0  0  0
   -2.6841   -3.1995   -2.1538 H   0  0  0  0  0  0
   -3.2219    0.9218    0.5127 H   0  0  0  0  0  0
    0.8221   -0.2076   -2.7225 H   0  0  0  0  0  0
    1.6676   -1.5308   -1.8919 H   0  0  0  0  0  0
   -0.6446    1.3378   -1.3562 H   0  0  0  0  0  0
    0.7083   -0.8949    0.2586 H   0  0  0  0  0  0
    0.5270    2.9904    1.9215 H   0  0  0  0  0  0
    0.6602    3.1898    0.1819 H   0  0  0  0  0  0
   -0.8590    0.9957    1.6668 H   0  0  0  0  0  0
   -1.5040    2.2917    0.6795 H   0  0  0  0  0  0
    1.8278    1.5352   -1.1956 H   0  0  0  0  0  0
    3.6284    0.0593   -1.4832 H   0  0  0  0  0  0
    3.3840   -0.7304    0.0797 H   0  0  0  0  0  0
    4.8944    1.7330   -0.4792 H   0  0  0  0  0  0
    4.8027    0.8046    1.0146 H   0  0  0  0  0  0
    3.0611    3.0768   -0.0418 H   0  0  0  0  0  0
    2.7829    0.0036    2.2571 H   0  0  0  0  0  0
    1.0275   -0.0513    2.2231 H   0  0  0  0  0  0
    1.8389    1.2068    3.1369 H   0  0  0  0  0  0
    4.4401    3.2986    1.7561 H   0  0  0  0  0  0
   -4.8390   -3.4879   -1.6089 H   0  0  0  0  0  0
  1  2  2  0  0  0
  1  4  1  0  0  0
  1 22  1  0  0  0
  2  3  1  0  0  0
  2 20  1  0  0  0
  3  6  2  0  0  0
  3 23  1  0  0  0
  4  5  2  0  0  0
  4 24  1  0  0  0
  5  6  1  0  0  0
  5  9  1  0  0  0
  6  7  1  0  0  0
  7  8  1  0  0  0
  7 21  2  0  0  0
  8 10  1  0  0  0
  8 25  1  0  0  0
  8 26  1  0  0  0
  9 10  1  0  0  0
  9 12  1  0  0  0
  9 27  1  0  0  0
 10 14  1  0  0  0
 10 28  1  0  0  0
 11 12  1  0  0  0
 11 13  1  0  0  0
 11 29  1  0  0  0
 11 30  1  0  0  0
 12 31  1  0  0  0
 12 32  1  0  0  0
 13 14  1  0  0  0
 13 17  1  0  0  0
 13 19  1  0  0  0
 14 15  1  0  0  0
 14 33  1  0  0  0
 15 16  1  0  0  0
 15 34  1  0  0  0
 15 35  1  0  0  0
 16 17  1  0  0  0
 16 36  1  0  0  0
 16 37  1  0  0  0
 17 18  1  0  0  0
 17 38  1  0  0  0
 18 42  1  0  0  0
 19 39  1  0  0  0
 19 40  1  0  0  0
 19 41  1  0  0  0
 20 43  1  0  0  0
M  END
>  <Name>
tox-419

>  <substance>
6-Ketoestradiol

>  <CASRN>
571-92-6

>  <from_NCI>
1

>  <RBA>
20.000000

>  <method>
MCF-7 cytosol

>  <chemical_class>
Steroid, phenolic

>  <set>
1

$$$$
tox-420
  Cerius2 12190218273D 1   1.00000                          
 Structure written by MMmdl.
 43 46  0  0  0  0  0  0  0  0999 V2000
    1.9694    0.8832   -0.4911 C   0  0  0  0  0  0
    0.9413   -0.2200   -0.5175 C   0  0  0  0  0  0
    1.9201    1.8299    0.6864 C   0  0  0  0  0  0
    2.8944    1.2162   -1.4011 C   0  0  0  0  0  0
   -0.5073    0.3828   -0.4703 C   0  0  0  0  0  0
    1.0823   -1.2223   -1.6658 C   0  0  0  0  0  0
    0.5064    2.3990    0.8363 C   0  0  0  0  0  0
    2.9212    2.8799    0.2010 C   0  0  0  0  0  0
    2.4438    1.1909    1.9747 C   0  0  0  0  0  0
    3.6387    2.4672   -1.0670 C   0  0  0  0  0  0
   -1.5412   -0.7602   -0.4275 C   0  0  0  0  0  0
   -0.5881    1.3143    0.7860 C   0  0  0  0  0  0
    0.1530   -2.4092   -1.4314 C   0  0  0  0  0  0
    3.1468    3.9423    0.7845 O   0  0  0  0  0  0
   -1.2216   -2.0461   -0.9196 C   0  0  0  0  0  0
   -2.8527   -0.5318    0.0364 C   0  0  0  0  0  0
   -2.1932   -3.0639   -0.8968 C   0  0  0  0  0  0
   -3.8107   -1.5491    0.0467 C   0  0  0  0  0  0
   -3.4713   -2.8096   -0.4176 C   0  0  0  0  0  0
   -4.3746   -3.8307   -0.4224 O   0  0  0  0  0  0
   -0.8371    1.2210   -1.7348 C   0  0  0  0  0  0
    1.0988   -0.7985    0.4062 H   0  0  0  0  0  0
    3.0731    0.6850   -2.3279 H   0  0  0  0  0  0
    2.1117   -1.5949   -1.7383 H   0  0  0  0  0  0
    0.8567   -0.7539   -2.6307 H   0  0  0  0  0  0
    0.3106    3.1426    0.0524 H   0  0  0  0  0  0
    0.4212    2.9490    1.7823 H   0  0  0  0  0  0
    2.5038    1.9330    2.7792 H   0  0  0  0  0  0
    3.4532    0.7839    1.8396 H   0  0  0  0  0  0
    1.8011    0.3759    2.3226 H   0  0  0  0  0  0
    3.5073    3.2275   -1.8396 H   0  0  0  0  0  0
    4.6925    2.2667   -0.8644 H   0  0  0  0  0  0
   -0.5271    0.7032    1.6963 H   0  0  0  0  0  0
   -1.5552    1.8289    0.8304 H   0  0  0  0  0  0
    0.6149   -3.0769   -0.6923 H   0  0  0  0  0  0
    0.0625   -2.9731   -2.3679 H   0  0  0  0  0  0
   -3.1596    0.4515    0.3878 H   0  0  0  0  0  0
   -1.9463   -4.0615   -1.2573 H   0  0  0  0  0  0
   -4.8110   -1.3339    0.4151 H   0  0  0  0  0  0
   -5.2215   -3.4952   -0.0578 H   0  0  0  0  0  0
   -1.8033    1.7291   -1.6271 H   0  0  0  0  0  0
   -0.9120    0.5993   -2.6339 H   0  0  0  0  0  0
   -0.0888    1.9937   -1.9340 H   0  0  0  0  0  0
  1  2  1  0  0  0
  1  3  1  0  0  0
  1  4  2  0  0  0
  2  5  1  0  0  0
  2  6  1  0  0  0
  2 22  1  0  0  0
  3  7  1  0  0  0
  3  8  1  0  0  0
  3  9  1  0  0  0
  4 10  1  0  0  0
  4 23  1  0  0  0
  5 11  1  0  0  0
  5 12  1  0  0  0
  5 21  1  0  0  0
  6 13  1  0  0  0
  6 24  1  0  0  0
  6 25  1  0  0  0
  7 12  1  0  0  0
  7 26  1  0  0  0
  7 27  1  0  0  0
  8 10  1  0  0  0
  8 14  2  0  0  0
  9 28  1  0  0  0
  9 29  1  0  0  0
  9 30  1  0  0  0
 10 31  1  0  0  0
 10 32  1  0  0  0
 11 15  2  0  0  0
 11 16  1  0  0  0
 12 33  1  0  0  0
 12 34  1  0  0  0
 13 15  1  0  0  0
 13 35  1  0  0  0
 13 36  1  0  0  0
 15 17  1  0  0  0
 16 18  2  0  0  0
 16 37  1  0  0  0
 17 19  2  0  0  0
 17 38  1  0  0  0
 18 19  1  0  0  0
 18 39  1  0  0  0
 19 20  1  0  0  0
 20 40  1  0  0  0
 21 41  1  0  0  0
 21 42  1  0  0  0
 21 43  1  0  0  0
M  END
>  <Name>
tox-420

>  <substance>
9a-Methyl-14-dehydroestrone 3- methyl ether

>  <CASRN>


>  <from_NCI>
0

>  <RBA>
0.000000

>  <method>
RUC

>  <chemical_class>
Steroid, nonphenolic

>  <set>
0

$$$$
tox-421
  Cerius2 12190218273D 1   1.00000                          
 Structure written by MMmdl.
 47 50  0  0  0  0  0  0  0  0999 V2000
   -4.0325   -1.3010   -0.5142 C   0  0  0  0  0  0
   -5.2591   -1.8963   -0.5078 O   0  0  0  0  0  0
   -3.9175   -0.0368    0.0400 C   0  0  0  0  0  0
   -2.6757    0.6022    0.0523 C   0  0  0  0  0  0
   -2.9240   -1.9357   -1.0606 C   0  0  0  0  0  0
   -1.6669   -1.3011   -1.0588 C   0  0  0  0  0  0
   -0.5012   -2.0702   -1.6405 C   0  0  0  0  0  0
    0.8053   -1.2887   -1.7624 C   0  0  0  0  0  0
    0.9775   -0.3630   -0.5576 C   0  0  0  0  0  0
    2.3514    0.3100   -0.5026 C   0  0  0  0  0  0
    3.6140   -0.5449   -0.5828 C   0  0  0  0  0  0
    4.7152    0.3708   -0.0141 C   0  0  0  0  0  0
    3.9950    1.6044    0.5675 C   0  0  0  0  0  0
    4.6498    2.0642    1.7395 O   0  0  0  0  0  0
    2.5509    1.1136    0.8008 C   0  0  0  0  0  0
    2.4780    0.2723    2.1029 C   0  0  0  0  0  0
    1.4847    2.2158    0.8564 C   0  0  0  0  0  0
    0.0563    1.6407    0.7335 C   0  0  0  0  0  0
   -0.1709    0.7140   -0.5093 C   0  0  0  0  0  0
   -1.5281   -0.0174   -0.4810 C   0  0  0  0  0  0
   -0.2131    1.6192   -1.7718 C   0  0  0  0  0  0
   -5.1778   -2.7774   -0.9315 H   0  0  0  0  0  0
   -4.7876    0.4625    0.4602 H   0  0  0  0  0  0
   -2.6276    1.6027    0.4774 H   0  0  0  0  0  0
   -3.0207   -2.9307   -1.4923 H   0  0  0  0  0  0
   -0.7724   -2.4579   -2.6301 H   0  0  0  0  0  0
   -0.3249   -2.9367   -0.9894 H   0  0  0  0  0  0
    0.8233   -0.7214   -2.6991 H   0  0  0  0  0  0
    1.6314   -2.0061   -1.8303 H   0  0  0  0  0  0
    0.8837   -1.0048    0.3296 H   0  0  0  0  0  0
    2.4172    0.9973   -1.3586 H   0  0  0  0  0  0
    3.8411   -0.8472   -1.6102 H   0  0  0  0  0  0
    3.5236   -1.4559    0.0190 H   0  0  0  0  0  0
    5.4093    0.6804   -0.8036 H   0  0  0  0  0  0
    5.3081   -0.1566    0.7415 H   0  0  0  0  0  0
    4.0191    2.4157   -0.1711 H   0  0  0  0  0  0
    4.1272    2.8272    2.0643 H   0  0  0  0  0  0
    2.6327    0.9103    2.9810 H   0  0  0  0  0  0
    3.2412   -0.5112    2.1399 H   0  0  0  0  0  0
    1.5116   -0.2197    2.2383 H   0  0  0  0  0  0
    1.6495    2.9408    0.0500 H   0  0  0  0  0  0
    1.5677    2.7826    1.7918 H   0  0  0  0  0  0
   -0.6345    2.4929    0.7097 H   0  0  0  0  0  0
   -0.1888    1.0884    1.6495 H   0  0  0  0  0  0
   -0.9937    2.3849   -1.6768 H   0  0  0  0  0  0
   -0.4478    1.0565   -2.6818 H   0  0  0  0  0  0
    0.7263    2.1501   -1.9448 H   0  0  0  0  0  0
  1  2  1  0  0  0
  1  3  2  0  0  0
  1  5  1  0  0  0
  2 22  1  0  0  0
  3  4  1  0  0  0
  3 23  1  0  0  0
  4 20  2  0  0  0
  4 24  1  0  0  0
  5  6  2  0  0  0
  5 25  1  0  0  0
  6  7  1  0  0  0
  6 20  1  0  0  0
  7  8  1  0  0  0
  7 26  1  0  0  0
  7 27  1  0  0  0
  8  9  1  0  0  0
  8 28  1  0  0  0
  8 29  1  0  0  0
  9 10  1  0  0  0
  9 19  1  0  0  0
  9 30  1  0  0  0
 10 11  1  0  0  0
 10 15  1  0  0  0
 10 31  1  0  0  0
 11 12  1  0  0  0
 11 32  1  0  0  0
 11 33  1  0  0  0
 12 13  1  0  0  0
 12 34  1  0  0  0
 12 35  1  0  0  0
 13 14  1  0  0  0
 13 15  1  0  0  0
 13 36  1  0  0  0
 14 37  1  0  0  0
 15 16  1  0  0  0
 15 17  1  0  0  0
 16 38  1  0  0  0
 16 39  1  0  0  0
 16 40  1  0  0  0
 17 18  1  0  0  0
 17 41  1  0  0  0
 17 42  1  0  0  0
 18 19  1  0  0  0
 18 43  1  0  0  0
 18 44  1  0  0  0
 19 20  1  0  0  0
 19 21  1  0  0  0
 21 45  1  0  0  0
 21 46  1  0  0  0
 21 47  1  0  0  0
M  END
>  <Name>
tox-421

>  <substance>
9a-Methylestradiol-17b

>  <CASRN>
66463-44-3

>  <from_NCI>
0

>  <RBA>
35.000000

>  <method>
RUC

>  <chemical_class>
Steroid, phenolic

>  <set>
0

$$$$
tox-422
  Cerius2 12190218273D 1   1.00000                          
 Structure written by MMmdl.
 50 53  0  0  0  0  0  0  0  0999 V2000
   -3.2636   -1.3213   -0.3131 C   0  0  0  0  0  0
   -4.4150   -2.0581   -0.3433 O   0  0  0  0  0  0
   -3.1201   -0.0479    0.2242 C   0  0  0  0  0  0
   -1.8765    0.5946    0.1899 C   0  0  0  0  0  0
   -2.1530   -1.9407   -0.8877 C   0  0  0  0  0  0
   -0.8965   -1.3064   -0.9340 C   0  0  0  0  0  0
    0.2499   -2.0787   -1.5474 C   0  0  0  0  0  0
    1.5508   -1.2961   -1.7164 C   0  0  0  0  0  0
    1.7585   -0.3595   -0.5255 C   0  0  0  0  0  0
    3.1311    0.3181   -0.5195 C   0  0  0  0  0  0
    4.3934   -0.5335   -0.6329 C   0  0  0  0  0  0
    5.5088    0.3899   -0.1063 C   0  0  0  0  0  0
    4.8032    1.6262    0.4875 C   0  0  0  0  0  0
    5.4931    2.0979    1.6344 O   0  0  0  0  0  0
    3.3689    1.1328    0.7705 C   0  0  0  0  0  0
    3.3401    0.3018    2.0809 C   0  0  0  0  0  0
    2.3013    2.2321    0.8512 C   0  0  0  0  0  0
    0.8717    1.6517    0.7780 C   0  0  0  0  0  0
    0.6087    0.7145   -0.4497 C   0  0  0  0  0  0
   -0.7434   -0.0211   -0.3729 C   0  0  0  0  0  0
    0.5237    1.6093   -1.7174 C   0  0  0  0  0  0
   -5.5721   -1.4632    0.2425 C   0  0  0  0  0  0
   -3.9528    0.4849    0.6757 H   0  0  0  0  0  0
   -1.8190    1.5992    0.6052 H   0  0  0  0  0  0
   -2.2640   -2.9407   -1.3077 H   0  0  0  0  0  0
   -0.0524   -2.4736   -2.5250 H   0  0  0  0  0  0
    0.4483   -2.9403   -0.8961 H   0  0  0  0  0  0
    1.5386   -0.7368   -2.6580 H   0  0  0  0  0  0
    2.3759   -2.0126   -1.8037 H   0  0  0  0  0  0
    1.6949   -0.9942    0.3695 H   0  0  0  0  0  0
    3.1675    0.9987   -1.3826 H   0  0  0  0  0  0
    4.5889   -0.8431   -1.6647 H   0  0  0  0  0  0
    4.3250   -1.4401   -0.0217 H   0  0  0  0  0  0
    6.1771    0.6950   -0.9195 H   0  0  0  0  0  0
    6.1267   -0.1296    0.6348 H   0  0  0  0  0  0
    4.8013    2.4313   -0.2582 H   0  0  0  0  0  0
    4.9780    2.8615    1.9696 H   0  0  0  0  0  0
    3.5209    0.9472    2.9485 H   0  0  0  0  0  0
    4.1065   -0.4793    2.0998 H   0  0  0  0  0  0
    2.3800   -0.1918    2.2510 H   0  0  0  0  0  0
    2.4381    2.9512    0.0343 H   0  0  0  0  0  0
    2.4120    2.8066    1.7790 H   0  0  0  0  0  0
    0.1774    2.5015    0.7693 H   0  0  0  0  0  0
    0.6574    1.1060    1.7056 H   0  0  0  0  0  0
   -0.2564    2.3730   -1.6042 H   0  0  0  0  0  0
    0.2630    1.0384   -2.6151 H   0  0  0  0  0  0
    1.4553    2.1421   -1.9239 H   0  0  0  0  0  0
   -6.3978   -2.1743    0.1433 H   0  0  0  0  0  0
   -5.8544   -0.5474   -0.2872 H   0  0  0  0  0  0
   -5.4199   -1.2748    1.3104 H   0  0  0  0  0  0
  1  2  1  0  0  0
  1  3  2  0  0  0
  1  5  1  0  0  0
  2 22  1  0  0  0
  3  4  1  0  0  0
  3 23  1  0  0  0
  4 20  2  0  0  0
  4 24  1  0  0  0
  5  6  2  0  0  0
  5 25  1  0  0  0
  6  7  1  0  0  0
  6 20  1  0  0  0
  7  8  1  0  0  0
  7 26  1  0  0  0
  7 27  1  0  0  0
  8  9  1  0  0  0
  8 28  1  0  0  0
  8 29  1  0  0  0
  9 10  1  0  0  0
  9 19  1  0  0  0
  9 30  1  0  0  0
 10 11  1  0  0  0
 10 15  1  0  0  0
 10 31  1  0  0  0
 11 12  1  0  0  0
 11 32  1  0  0  0
 11 33  1  0  0  0
 12 13  1  0  0  0
 12 34  1  0  0  0
 12 35  1  0  0  0
 13 14  1  0  0  0
 13 15  1  0  0  0
 13 36  1  0  0  0
 14 37  1  0  0  0
 15 16  1  0  0  0
 15 17  1  0  0  0
 16 38  1  0  0  0
 16 39  1  0  0  0
 16 40  1  0  0  0
 17 18  1  0  0  0
 17 41  1  0  0  0
 17 42  1  0  0  0
 18 19  1  0  0  0
 18 43  1  0  0  0
 18 44  1  0  0  0
 19 20  1  0  0  0
 19 21  1  0  0  0
 21 45  1  0  0  0
 21 46  1  0  0  0
 21 47  1  0  0  0
 22 48  1  0  0  0
 22 49  1  0  0  0
 22 50  1  0  0  0
M  END
>  <Name>
tox-422

>  <substance>
9a-Methylestradiol-17b 3-methyl ether

>  <CASRN>
51242-32-1

>  <from_NCI>
0

>  <RBA>
0.000000

>  <method>
RUC

>  <chemical_class>
Steroid, nonphenolic

>  <set>
1

$$$$
tox-423
  Cerius2 12190218273D 1   1.00000                          
 Structure written by MMmdl.
 45 48  0  0  0  0  0  0  0  0999 V2000
   -7.8607   -5.1910   10.6214 C   0  0  0  0  0  0
   -7.0132   -4.8781   11.8569 C   0  0  0  0  0  0
   -9.1069   -4.2797   10.5552 C   0  0  0  0  0  0
   -7.2547   -5.0872    9.2251 C   0  0  0  0  0  0
   -7.8397   -5.1515   13.1721 C   0  0  0  0  0  0
   -5.6790   -5.6235   11.8875 C   0  0  0  0  0  0
   -9.9816   -4.5850   11.7674 C   0  0  0  0  0  0
   -9.6227   -4.7222    9.1943 C   0  0  0  0  0  0
   -8.8335   -2.7657   10.4430 C   0  0  0  0  0  0
   -8.4857   -5.2175    8.3129 C   0  0  0  0  0  0
   -6.9817   -4.7353   14.3831 C   0  0  0  0  0  0
   -9.2033   -4.3819   13.0864 C   0  0  0  0  0  0
   -4.8195   -5.1148   13.0434 C   0  0  0  0  0  0
  -10.7948   -4.6655    8.8316 O   0  0  0  0  0  0
   -5.5700   -4.7716   14.3107 C   0  0  0  0  0  0
   -7.5787   -4.3809   15.6095 C   0  0  0  0  0  0
   -4.8053   -4.4285   15.4411 C   0  0  0  0  0  0
   -6.8073   -4.0460   16.7255 C   0  0  0  0  0  0
   -5.4250   -4.0710   16.6312 C   0  0  0  0  0  0
   -4.6358   -3.7498   17.6955 O   0  0  0  0  0  0
   -8.1635   -6.6558   13.3906 C   0  0  0  0  0  0
   -8.1878   -6.2384   10.7030 H   0  0  0  0  0  0
   -6.7595   -3.8091   11.8264 H   0  0  0  0  0  0
   -6.5314   -5.8827    9.0202 H   0  0  0  0  0  0
   -6.7478   -4.1286    9.0715 H   0  0  0  0  0  0
   -5.1232   -5.4755   10.9544 H   0  0  0  0  0  0
   -5.8348   -6.7040   11.9759 H   0  0  0  0  0  0
  -10.3598   -5.6134   11.7142 H   0  0  0  0  0  0
  -10.8719   -3.9440   11.7691 H   0  0  0  0  0  0
   -9.7800   -2.2173   10.3606 H   0  0  0  0  0  0
   -8.2532   -2.5090    9.5503 H   0  0  0  0  0  0
   -8.3004   -2.3623   11.3075 H   0  0  0  0  0  0
   -8.6719   -6.2631    8.0512 H   0  0  0  0  0  0
   -8.3882   -4.6023    7.4160 H   0  0  0  0  0  0
   -9.0227   -3.3089   13.2301 H   0  0  0  0  0  0
   -9.8677   -4.6825   13.9063 H   0  0  0  0  0  0
   -4.3038   -4.2031   12.7132 H   0  0  0  0  0  0
   -4.0474   -5.8624   13.2630 H   0  0  0  0  0  0
   -8.6610   -4.3708   15.7239 H   0  0  0  0  0  0
   -3.7176   -4.4392   15.3869 H   0  0  0  0  0  0
   -7.3047   -3.7757   17.6540 H   0  0  0  0  0  0
   -3.6977   -3.8304   17.4195 H   0  0  0  0  0  0
   -8.7702   -6.7969   14.2943 H   0  0  0  0  0  0
   -7.2619   -7.2614   13.5318 H   0  0  0  0  0  0
   -8.7294   -7.0924   12.5638 H   0  0  0  0  0  0
  1  2  1  0  0  0
  1  3  1  0  0  0
  1  4  1  0  0  0
  1 22  1  0  0  0
  2  5  1  0  0  0
  2  6  1  0  0  0
  2 23  1  0  0  0
  3  7  1  0  0  0
  3  8  1  0  0  0
  3  9  1  0  0  0
  4 10  1  0  0  0
  4 24  1  0  0  0
  4 25  1  0  0  0
  5 11  1  0  0  0
  5 12  1  0  0  0
  5 21  1  0  0  0
  6 13  1  0  0  0
  6 26  1  0  0  0
  6 27  1  0  0  0
  7 12  1  0  0  0
  7 28  1  0  0  0
  7 29  1  0  0  0
  8 10  1  0  0  0
  8 14  2  0  0  0
  9 30  1  0  0  0
  9 31  1  0  0  0
  9 32  1  0  0  0
 10 33  1  0  0  0
 10 34  1  0  0  0
 11 15  2  0  0  0
 11 16  1  0  0  0
 12 35  1  0  0  0
 12 36  1  0  0  0
 13 15  1  0  0  0
 13 37  1  0  0  0
 13 38  1  0  0  0
 15 17  1  0  0  0
 16 18  2  0  0  0
 16 39  1  0  0  0
 17 19  2  0  0  0
 17 40  1  0  0  0
 18 19  1  0  0  0
 18 41  1  0  0  0
 19 20  1  0  0  0
 20 42  1  0  0  0
 21 43  1  0  0  0
 21 44  1  0  0  0
 21 45  1  0  0  0
M  END
>  <Name>
tox-423

>  <substance>
9a-Methylestrone

>  <CASRN>
71563-77-4

>  <from_NCI>
0

>  <RBA>
5.000000

>  <method>
RUC

>  <chemical_class>
Steroid, phenolic

>  <set>
0

$$$$
tox-424
  Cerius2 12190218273D 1   1.00000                          
 Structure written by MMmdl.
 48 51  0  0  0  0  0  0  0  0999 V2000
    3.3222    0.3134    0.5739 C   0  0  0  0  0  0
    1.8985   -0.2481    0.5842 C   0  0  0  0  0  0
    3.3117    1.8587    0.5811 C   0  0  0  0  0  0
    4.3028   -0.0529    1.6837 C   0  0  0  0  0  0
    1.1229    0.2014   -0.7135 C   0  0  0  0  0  0
    1.8409   -1.7663    0.7541 C   0  0  0  0  0  0
    2.6506    2.3337   -0.7094 C   0  0  0  0  0  0
    4.8099    2.0815    0.7199 C   0  0  0  0  0  0
    2.6593    2.5256    1.8095 C   0  0  0  0  0  0
    5.4736    0.9111    1.4304 C   0  0  0  0  0  0
   -0.3279   -0.3079   -0.6150 C   0  0  0  0  0  0
    1.2234    1.7599   -0.8532 C   0  0  0  0  0  0
    0.3941   -2.2192    0.9428 C   0  0  0  0  0  0
    5.4126    3.0817    0.3392 O   0  0  0  0  0  0
   -0.6343   -1.4676    0.1275 C   0  0  0  0  0  0
   -1.3704    0.3224   -1.3189 C   0  0  0  0  0  0
   -1.9613   -1.9375    0.1674 C   0  0  0  0  0  0
   -2.6840   -0.1601   -1.2724 C   0  0  0  0  0  0
   -2.9862   -1.2927   -0.5263 C   0  0  0  0  0  0
   -4.2208   -1.8654   -0.3948 O   0  0  0  0  0  0
    1.6945   -0.4238   -2.0165 C   0  0  0  0  0  0
   -5.2969   -1.2352   -1.0883 C   0  0  0  0  0  0
    3.8076   -0.0364   -0.3496 H   0  0  0  0  0  0
    1.3797    0.1716    1.4575 H   0  0  0  0  0  0
    4.6350   -1.0941    1.6249 H   0  0  0  0  0  0
    3.8697    0.1028    2.6775 H   0  0  0  0  0  0
    2.4189   -2.0874    1.6284 H   0  0  0  0  0  0
    2.2898   -2.2748   -0.1058 H   0  0  0  0  0  0
    3.2566    2.0430   -1.5765 H   0  0  0  0  0  0
    2.6056    3.4295   -0.7363 H   0  0  0  0  0  0
    2.7428    3.6168    1.7342 H   0  0  0  0  0  0
    3.1489    2.2460    2.7484 H   0  0  0  0  0  0
    1.5972    2.2890    1.9108 H   0  0  0  0  0  0
    6.2126    0.4641    0.7592 H   0  0  0  0  0  0
    5.9391    1.2324    2.3645 H   0  0  0  0  0  0
    0.5741    2.2328   -0.1052 H   0  0  0  0  0  0
    0.8379    2.0853   -1.8276 H   0  0  0  0  0  0
    0.1286   -2.0907    2.0006 H   0  0  0  0  0  0
    0.3293   -3.2913    0.7203 H   0  0  0  0  0  0
   -1.1796    1.2007   -1.9332 H   0  0  0  0  0  0
   -2.1979   -2.8248    0.7552 H   0  0  0  0  0  0
   -3.4406    0.3765   -1.8385 H   0  0  0  0  0  0
    1.1504   -0.0570   -2.8963 H   0  0  0  0  0  0
    1.5999   -1.5149   -2.0333 H   0  0  0  0  0  0
    2.7476   -0.1803   -2.1774 H   0  0  0  0  0  0
   -6.2062   -1.8072   -0.8808 H   0  0  0  0  0  0
   -5.1309   -1.2524   -2.1704 H   0  0  0  0  0  0
   -5.4543   -0.2141   -0.7256 H   0  0  0  0  0  0
  1  2  1  0  0  0
  1  3  1  0  0  0
  1  4  1  0  0  0
  1 23  1  0  0  0
  2  5  1  0  0  0
  2  6  1  0  0  0
  2 24  1  0  0  0
  3  7  1  0  0  0
  3  8  1  0  0  0
  3  9  1  0  0  0
  4 10  1  0  0  0
  4 25  1  0  0  0
  4 26  1  0  0  0
  5 11  1  0  0  0
  5 12  1  0  0  0
  5 21  1  0  0  0
  6 13  1  0  0  0
  6 27  1  0  0  0
  6 28  1  0  0  0
  7 12  1  0  0  0
  7 29  1  0  0  0
  7 30  1  0  0  0
  8 10  1  0  0  0
  8 14  2  0  0  0
  9 31  1  0  0  0
  9 32  1  0  0  0
  9 33  1  0  0  0
 10 34  1  0  0  0
 10 35  1  0  0  0
 11 15  2  0  0  0
 11 16  1  0  0  0
 12 36  1  0  0  0
 12 37  1  0  0  0
 13 15  1  0  0  0
 13 38  1  0  0  0
 13 39  1  0  0  0
 15 17  1  0  0  0
 16 18  2  0  0  0
 16 40  1  0  0  0
 17 19  2  0  0  0
 17 41  1  0  0  0
 18 19  1  0  0  0
 18 42  1  0  0  0
 19 20  1  0  0  0
 20 22  1  0  0  0
 21 43  1  0  0  0
 21 44  1  0  0  0
 21 45  1  0  0  0
 22 46  1  0  0  0
 22 47  1  0  0  0
 22 48  1  0  0  0
M  END
>  <Name>
tox-424

>  <substance>
9a-Methylestrone 3-methyl ether

>  <CASRN>
31266-41-8

>  <from_NCI>
0

>  <RBA>
0.000000

>  <method>
RUC

>  <chemical_class>
Steroid, nonphenolic

>  <set>
0

$$$$
tox-425
  Cerius2 12190218273D 1   1.00000                          
 Structure written by MMmdl.
 34 39  0  0  0  0  0  0  0  0999 V2000
   -0.5578    0.0489    0.2445 C   0  0  0  0  0  0
    0.6018    0.7974    0.4727 C   0  0  0  0  0  0
   -0.5912   -1.3021    0.1786 C   0  0  0  0  0  0
   -1.7858    0.5864    0.0623 C   0  0  0  0  0  0
    1.8148    0.1049    0.6455 C   0  0  0  0  0  0
    0.5027    2.1988    0.5187 C   0  0  0  0  0  0
   -1.9171   -1.6407   -0.0591 C   0  0  0  0  0  0
    0.6262   -2.0199    0.3509 C   0  0  0  0  0  0
   -2.6485   -0.4848   -0.1303 C   0  0  0  0  0  0
   -1.9146    2.0007    0.1037 C   0  0  0  0  0  0
    1.8317   -1.3174    0.5847 C   0  0  0  0  0  0
    2.9891    0.8481    0.8759 C   0  0  0  0  0  0
   -0.7717    2.7908    0.3310 C   0  0  0  0  0  0
    1.6833    2.9206    0.7494 C   0  0  0  0  0  0
   -2.5438   -2.8989   -0.2204 C   0  0  0  0  0  0
   -4.0428   -0.5289   -0.3663 C   0  0  0  0  0  0
    3.0570   -1.9735    0.7611 C   0  0  0  0  0  0
    2.9076    2.2542    0.9252 C   0  0  0  0  0  0
    4.1951    0.1528    1.0473 C   0  0  0  0  0  0
   -3.9200   -2.9495   -0.4536 C   0  0  0  0  0  0
   -4.6674   -1.7678   -0.5263 C   0  0  0  0  0  0
    4.2274   -1.2440    0.9902 C   0  0  0  0  0  0
    0.6168   -3.1068    0.3008 H   0  0  0  0  0  0
   -2.8857    2.4688   -0.0386 H   0  0  0  0  0  0
   -0.8782    3.8749    0.3615 H   0  0  0  0  0  0
    1.6627    4.0088    0.7946 H   0  0  0  0  0  0
   -1.9633   -3.8167   -0.1638 H   0  0  0  0  0  0
   -4.6228    0.3892   -0.4226 H   0  0  0  0  0  0
    3.1125   -3.0609    0.7218 H   0  0  0  0  0  0
    3.8046    2.8476    1.1024 H   0  0  0  0  0  0
    5.1231    0.6948    1.2273 H   0  0  0  0  0  0
   -4.4140   -3.9117   -0.5793 H   0  0  0  0  0  0
   -5.7399   -1.8153   -0.7083 H   0  0  0  0  0  0
    5.1725   -1.7680    1.1255 H   0  0  0  0  0  0
  1  2  2  0  0  0
  1  3  1  0  0  0
  1  4  1  0  0  0
  2  5  1  0  0  0
  2  6  1  0  0  0
  3  7  1  0  0  0
  3  8  2  0  0  0
  4  9  1  0  0  0
  4 10  2  0  0  0
  5 11  2  0  0  0
  5 12  1  0  0  0
  6 13  2  0  0  0
  6 14  1  0  0  0
  7  9  2  0  0  0
  7 15  1  0  0  0
  8 11  1  0  0  0
  8 23  1  0  0  0
  9 16  1  0  0  0
 10 13  1  0  0  0
 10 24  1  0  0  0
 11 17  1  0  0  0
 12 18  1  0  0  0
 12 19  2  0  0  0
 13 25  1  0  0  0
 14 18  2  0  0  0
 14 26  1  0  0  0
 15 20  2  0  0  0
 15 27  1  0  0  0
 16 21  2  0  0  0
 16 28  1  0  0  0
 17 22  2  0  0  0
 17 29  1  0  0  0
 18 30  1  0  0  0
 19 22  1  0  0  0
 19 31  1  0  0  0
 20 21  1  0  0  0
 20 32  1  0  0  0
 21 33  1  0  0  0
 22 34  1  0  0  0
M  END
>  <Name>
tox-425

>  <substance>
Indeno[1,2,3-cd ]pyrene

>  <CASRN>
193-39-5

>  <from_NCI>
1

>  <RBA>
20.000000

>  <method>
MCF-7 cells

>  <chemical_class>
Polycyclic aromatic hydrocarbon

>  <set>
0

$$$$
tox-426
  Cerius2 12190218273D 1   1.00000                          
 Structure written by MMmdl.
 34 38  0  0  0  0  0  0  0  0999 V2000
    2.1392   -0.9955    1.3319 N   0  0  0  0  0  0
    0.8541   -0.5709    1.1128 C   0  0  0  0  0  0
   -0.2661   -1.2515    0.8439 C   0  0  0  0  0  0
   -1.5759   -0.5147    0.8113 C   0  0  0  0  0  0
   -1.3532    0.9530    0.4381 C   0  0  0  0  0  0
   -0.2001    1.6789    1.0098 C   0  0  0  0  0  0
    0.8476    0.8941    1.2944 C   0  0  0  0  0  0
    2.1991    1.2953    1.7117 C   0  0  0  0  0  0
    2.7777    2.5043    2.0446 C   0  0  0  0  0  0
    4.1342    2.4985    2.3831 C   0  0  0  0  0  0
    4.8777    1.3017    2.3790 C   0  0  0  0  0  0
    4.2819    0.0816    2.0386 C   0  0  0  0  0  0
    2.9422    0.0874    1.7126 C   0  0  0  0  0  0
   -2.1858    1.4746   -0.4137 N   0  0  0  0  0  0
   -2.6936   -0.8770   -0.1596 C   0  0  0  0  0  0
   -2.5023   -2.0543   -1.1244 C   0  0  0  0  0  0
   -3.5227   -1.9876   -2.2430 C   0  0  0  0  0  0
   -4.0458   -0.8146   -2.6441 C   0  0  0  0  0  0
   -3.5697    0.4314   -2.0753 C   0  0  0  0  0  0
   -2.9097    0.4200   -0.9080 C   0  0  0  0  0  0
    2.4256   -1.9659    1.3211 H   0  0  0  0  0  0
   -0.2566   -2.3332    0.7633 H   0  0  0  0  0  0
   -1.9887   -0.5347    1.8303 H   0  0  0  0  0  0
   -0.1993    2.7580    1.0448 H   0  0  0  0  0  0
    2.2092    3.4288    2.0439 H   0  0  0  0  0  0
    4.6263    3.4329    2.6515 H   0  0  0  0  0  0
    5.9343    1.3280    2.6440 H   0  0  0  0  0  0
    4.8613   -0.8364    2.0349 H   0  0  0  0  0  0
   -3.6016   -1.0683    0.4328 H   0  0  0  0  0  0
   -2.6261   -2.9944   -0.5747 H   0  0  0  0  0  0
   -1.5004   -2.0625   -1.5694 H   0  0  0  0  0  0
   -3.8263   -2.9178   -2.7170 H   0  0  0  0  0  0
   -4.7703   -0.7656   -3.4534 H   0  0  0  0  0  0
   -3.6780    1.3400   -2.6598 H   0  0  0  0  0  0
  1  2  1  0  0  0
  1 13  1  0  0  0
  1 21  1  0  0  0
  2  3  2  0  0  0
  2  7  1  0  0  0
  3  4  1  0  0  0
  3 22  1  0  0  0
  4  5  1  0  0  0
  4 15  1  0  0  0
  4 23  1  0  0  0
  5  6  1  0  0  0
  5 14  2  0  0  0
  6  7  2  0  0  0
  6 24  1  0  0  0
  7  8  1  0  0  0
  8  9  2  0  0  0
  8 13  1  0  0  0
  9 10  1  0  0  0
  9 25  1  0  0  0
 10 11  2  0  0  0
 10 26  1  0  0  0
 11 12  1  0  0  0
 11 27  1  0  0  0
 12 13  2  0  0  0
 12 28  1  0  0  0
 14 20  1  0  0  0
 15 16  1  0  0  0
 15 20  1  0  0  0
 15 29  1  0  0  0
 16 17  1  0  0  0
 16 30  1  0  0  0
 16 31  1  0  0  0
 17 18  2  0  0  0
 17 32  1  0  0  0
 18 19  1  0  0  0
 18 33  1  0  0  0
 19 20  2  0  0  0
 19 34  1  0  0  0
M  END
>  <Name>
tox-426

>  <substance>
Indole[3,2-b ]carbazole

>  <CASRN>


>  <from_NCI>
0

>  <RBA>
0.000800

>  <method>
RUC

>  <chemical_class>
Nitrogen heterocycle

>  <set>
1

$$$$
tox-427
  Cerius2 12190218273D 1   1.00000                          
 Structure written by MMmdl.
 37 39  0  0  0  0  0  0  0  0999 V2000
   -2.6344    1.6906   -0.4579 C   0  0  0  0  0  0
   -2.7815    0.3927    0.0342 C   0  0  0  0  0  0
   -1.6907   -0.4851    0.0476 C   0  0  0  0  0  0
   -1.3931    2.0953   -0.9594 C   0  0  0  0  0  0
   -0.3041    1.2215   -0.9460 C   0  0  0  0  0  0
   -0.4494   -0.0655   -0.4394 C   0  0  0  0  0  0
    0.7200   -0.9677   -0.4217 C   0  0  0  0  0  0
    1.9954   -0.4078   -0.9544 C   0  0  0  0  0  0
    1.9666    0.8514   -1.4186 C   0  0  0  0  0  0
    0.8821    1.6947   -1.4452 O   0  0  0  0  0  0
    3.2439   -1.1891   -0.9937 C   0  0  0  0  0  0
    3.2947   -2.4205   -1.6613 C   0  0  0  0  0  0
    4.4793   -3.1610   -1.6990 C   0  0  0  0  0  0
    5.6252   -2.6784   -1.0697 C   0  0  0  0  0  0
    5.5888   -1.4559   -0.4021 C   0  0  0  0  0  0
    4.4049   -0.7150   -0.3638 C   0  0  0  0  0  0
    0.6310   -2.1098    0.0231 O   0  0  0  0  0  0
   -3.6139    2.6413   -0.5261 O   0  0  0  0  0  0
   -4.8073    2.4578    0.2512 C   0  0  0  0  0  0
   -5.8859    1.8113   -0.6125 C   0  0  0  0  0  0
   -5.2572    3.8457    0.7021 C   0  0  0  0  0  0
   -3.7321    0.0230    0.4084 H   0  0  0  0  0  0
   -1.8209   -1.4924    0.4381 H   0  0  0  0  0  0
   -1.2707    3.1014   -1.3549 H   0  0  0  0  0  0
    2.8266    1.3586   -1.8430 H   0  0  0  0  0  0
    2.4111   -2.8152   -2.1616 H   0  0  0  0  0  0
    4.5064   -4.1163   -2.2204 H   0  0  0  0  0  0
    6.5477   -3.2554   -1.0997 H   0  0  0  0  0  0
    6.4821   -1.0779    0.0919 H   0  0  0  0  0  0
    4.3986    0.2347    0.1698 H   0  0  0  0  0  0
   -4.6206    1.8680    1.1558 H   0  0  0  0  0  0
   -6.8167    1.6841   -0.0514 H   0  0  0  0  0  0
   -5.5670    0.8302   -0.9771 H   0  0  0  0  0  0
   -6.0925    2.4204   -1.4995 H   0  0  0  0  0  0
   -6.1750    3.7931    1.2964 H   0  0  0  0  0  0
   -5.4308    4.5039   -0.1564 H   0  0  0  0  0  0
   -4.4764    4.3198    1.3073 H   0  0  0  0  0  0
  1  2  2  0  0  0
  1  4  1  0  0  0
  1 18  1  0  0  0
  2  3  1  0  0  0
  2 22  1  0  0  0
  3  6  2  0  0  0
  3 23  1  0  0  0
  4  5  2  0  0  0
  4 24  1  0  0  0
  5  6  1  0  0  0
  5 10  1  0  0  0
  6  7  1  0  0  0
  7  8  1  0  0  0
  7 17  2  0  0  0
  8  9  2  0  0  0
  8 11  1  0  0  0
  9 10  1  0  0  0
  9 25  1  0  0  0
 11 12  2  0  0  0
 11 16  1  0  0  0
 12 13  1  0  0  0
 12 26  1  0  0  0
 13 14  2  0  0  0
 13 27  1  0  0  0
 14 15  1  0  0  0
 14 28  1  0  0  0
 15 16  2  0  0  0
 15 29  1  0  0  0
 16 30  1  0  0  0
 18 19  1  0  0  0
 19 20  1  0  0  0
 19 21  1  0  0  0
 19 31  1  0  0  0
 20 32  1  0  0  0
 20 33  1  0  0  0
 20 34  1  0  0  0
 21 35  1  0  0  0
 21 36  1  0  0  0
 21 37  1  0  0  0
M  END
>  <Name>
tox-427

>  <substance>
Ipriflavone

>  <CASRN>
35212-22-7

>  <from_NCI>
1

>  <RBA>
0.000000

>  <method>
hERa

>  <chemical_class>
Isoflavone

>  <set>
2

$$$$
tox-428
  Cerius2 12190218273D 1   1.00000                          
 Structure written by MMmdl.
 24 24  0  0  0  0  0  0  0  0999 V2000
    2.0386   -0.0231    0.2196 C   0  0  0  0  0  0
    0.8624   -0.7936    0.1082 C   0  0  0  0  0  0
    2.0036    1.3751    0.5096 C   0  0  0  0  0  0
    3.3034   -0.5584    0.0557 O   0  0  0  0  0  0
   -0.4005   -0.2209    0.2897 C   0  0  0  0  0  0
    0.7061    1.9075    0.6670 C   0  0  0  0  0  0
    3.0341    2.1230    0.6229 O   0  0  0  0  0  0
    3.4080   -1.9524   -0.2304 C   0  0  0  0  0  0
   -0.4671    1.1430    0.5577 C   0  0  0  0  0  0
   -1.5967   -1.0638    0.1334 C   0  0  0  0  0  0
   -2.7626   -0.8659    0.7695 C   0  0  0  0  0  0
   -3.9591   -1.7463    0.5960 C   0  0  0  0  0  0
    0.9125   -1.8562   -0.1152 H   0  0  0  0  0  0
    0.5850    2.9737    0.8825 H   0  0  0  0  0  0
    4.4716   -2.1928   -0.3217 H   0  0  0  0  0  0
    2.9291   -2.1948   -1.1845 H   0  0  0  0  0  0
    3.0002   -2.5537    0.5885 H   0  0  0  0  0  0
   -1.4248    1.6463    0.6778 H   0  0  0  0  0  0
   -1.4899   -1.9130   -0.5414 H   0  0  0  0  0  0
   -2.8872   -0.0400    1.4675 H   0  0  0  0  0  0
   -4.8031   -1.1576    0.2240 H   0  0  0  0  0  0
   -4.2417   -2.1840    1.5582 H   0  0  0  0  0  0
   -3.7749   -2.5626   -0.1097 H   0  0  0  0  0  0
    2.7893    2.9182    0.7968 H   0  0  0  0  0  0
  1  2  2  0  0  0
  1  3  1  0  0  0
  1  4  1  0  0  0
  2  5  1  0  0  0
  2 13  1  0  0  0
  3  6  2  0  0  0
  3  7  1  0  0  0
  4  8  1  0  0  0
  5  9  2  0  0  0
  5 10  1  0  0  0
  6  9  1  0  0  0
  6 14  1  0  0  0
  7 24  1  0  0  0
  8 15  1  0  0  0
  8 16  1  0  0  0
  8 17  1  0  0  0
  9 18  1  0  0  0
 10 11  2  0  0  0
 10 19  1  0  0  0
 11 12  1  0  0  0
 11 20  1  0  0  0
 12 21  1  0  0  0
 12 22  1  0  0  0
 12 23  1  0  0  0
M  END
>  <Name>
tox-428

>  <substance>
Isoeugenol

>  <CASRN>
97-54-1

>  <from_NCI>
1

>  <RBA>
0.000000

>  <method>
RUC

>  <chemical_class>
Alkoxyphenol

>  <set>
1

$$$$
tox-429
  Cerius2 12190218273D 1   1.00000                          
 Structure written by MMmdl.
 31 33  0  0  0  0  0  0  0  0999 V2000
   -1.1875   -1.5735   -1.5351 C   0  0  0  0  0  0
   -1.3195   -0.5560   -0.5925 C   0  0  0  0  0  0
    0.1820   -2.1863   -1.6206 C   0  0  0  0  0  0
   -2.3090   -1.9904   -2.3222 C   0  0  0  0  0  0
   -0.2817   -0.1010    0.1708 O   0  0  0  0  0  0
   -2.5548    0.0633   -0.3602 C   0  0  0  0  0  0
    1.3792   -1.3787   -1.0778 C   0  0  0  0  0  0
    0.3606   -3.3125   -2.0932 O   0  0  0  0  0  0
   -3.5249   -1.3030   -2.0261 C   0  0  0  0  0  0
   -2.3010   -2.8820   -3.2391 O   0  0  0  0  0  0
    1.0106   -0.4098   -0.1993 C   0  0  0  0  0  0
   -3.7128   -0.2818   -1.0631 C   0  0  0  0  0  0
    2.5253   -1.7360   -1.4976 O   0  0  0  0  0  0
    1.9801    0.4635    0.5084 C   0  0  0  0  0  0
   -4.8371    0.2764   -0.8591 O   0  0  0  0  0  0
    1.9706    1.8432    0.2950 C   0  0  0  0  0  0
    2.8800   -0.0438    1.4464 C   0  0  0  0  0  0
    2.8563    2.6836    0.9945 C   0  0  0  0  0  0
    3.7570    0.8139    2.1361 C   0  0  0  0  0  0
    3.7849    2.2084    1.9406 C   0  0  0  0  0  0
    4.5814    2.9754    2.5683 O   0  0  0  0  0  0
   -2.5977    0.8477    0.3997 H   0  0  0  0  0  0
   -4.4118   -1.5966   -2.6079 H   0  0  0  0  0  0
    1.2758    2.2858   -0.4175 H   0  0  0  0  0  0
    2.9117   -1.1120    1.6562 H   0  0  0  0  0  0
    2.8033    3.7551    0.7807 H   0  0  0  0  0  0
    4.4413    0.3557    2.8562 H   0  0  0  0  0  0
   -3.0816   -2.9586   -3.5667 H   0  0  0  0  0  0
    3.1217   -1.2403   -1.1496 H   0  0  0  0  0  0
   -5.4198   -0.0626   -1.3768 H   0  0  0  0  0  0
    5.0642    2.5136    3.0938 H   0  0  0  0  0  0
  1  2  2  0  0  0
  1  3  1  0  0  0
  1  4  1  0  0  0
  2  5  1  0  0  0
  2  6  1  0  0  0
  3  7  1  0  0  0
  3  8  2  0  0  0
  4  9  2  0  0  0
  4 10  1  0  0  0
  5 11  1  0  0  0
  6 12  2  0  0  0
  6 22  1  0  0  0
  7 11  2  0  0  0
  7 13  1  0  0  0
  9 12  1  0  0  0
  9 23  1  0  0  0
 10 28  1  0  0  0
 11 14  1  0  0  0
 12 15  1  0  0  0
 13 29  1  0  0  0
 14 16  2  0  0  0
 14 17  1  0  0  0
 15 30  1  0  0  0
 16 18  1  0  0  0
 16 24  1  0  0  0
 17 19  2  0  0  0
 17 25  1  0  0  0
 18 20  2  0  0  0
 18 26  1  0  0  0
 19 20  1  0  0  0
 19 27  1  0  0  0
 20 21  1  0  0  0
 21 31  1  0  0  0
M  END
>  <Name>
tox-429

>  <substance>
Kaempferol

>  <CASRN>
520-18-3

>  <from_NCI>
1

>  <RBA>
0.060000

>  <method>
hERa,RUC

>  <chemical_class>
Flavone

>  <set>
0

$$$$
tox-430
  Cerius2 12190218273D 1   1.00000                          
 Structure written by MMmdl.
 21 25  0  0  0  0  0  0  0  0999 V2000
    0.5809   -1.2746    1.2191 C   0  0  0  0  0  0
   -1.0916   -0.7210    0.3037 C   0  0  0  0  0  0
    2.2349   -0.9016    0.2304 C   0  0  0  0  0  0
    1.1335   -0.2158    0.2724 C   0  0  0  0  0  0
    0.7832   -1.7720    2.9140 Cl  0  0  0  0  0  0
   -0.2842   -0.2971   -0.9416 C   0  0  0  0  0  0
   -0.9942    1.1895    0.0195 C   0  0  0  0  0  0
   -2.6001   -1.6112    0.2771 Cl  0  0  0  0  0  0
    1.7291    0.3831    1.3710 C   0  0  0  0  0  0
    1.5413   -0.6198   -1.5732 C   0  0  0  0  0  0
    3.7954   -1.7157    0.3626 Cl  0  0  0  0  0  0
    0.4048    1.5379   -0.4502 C   0  0  0  0  0  0
    0.6178   -2.4424   -0.2955 Cl  0  0  0  0  0  0
   -0.1274    0.6710    1.0088 C   0  0  0  0  0  0
   -1.2935    0.0363   -2.4651 Cl  0  0  0  0  0  0
   -2.2393    2.3849    0.2082 Cl  0  0  0  0  0  0
    2.8068    1.7749    1.4277 Cl  0  0  0  0  0  0
    1.7663   -1.9074   -2.8291 Cl  0  0  0  0  0  0
    2.4568    0.7770   -2.2757 Cl  0  0  0  0  0  0
    0.7595    2.5830   -0.9681 O   0  0  0  0  0  0
   -1.0958    0.7883    2.6288 Cl  0  0  0  0  0  0
  1  2  1  0  0  0
  1  3  1  0  0  0
  1  4  1  0  0  0
  1  5  1  0  0  0
  2  6  1  0  0  0
  2  7  1  0  0  0
  2  8  1  0  0  0
  3  9  1  0  0  0
  3 10  1  0  0  0
  3 11  1  0  0  0
  4  9  1  0  0  0
  4 12  1  0  0  0
  4 13  1  0  0  0
  6 10  1  0  0  0
  6 14  1  0  0  0
  6 15  1  0  0  0
  7 12  1  0  0  0
  7 14  1  0  0  0
  7 16  1  0  0  0
  9 14  1  0  0  0
  9 17  1  0  0  0
 10 18  1  0  0  0
 10 19  1  0  0  0
 12 20  2  0  0  0
 14 21  1  0  0  0
M  END
>  <Name>
tox-430

>  <substance>
Kepone

>  <CASRN>
143-50-0

>  <from_NCI>
1

>  <RBA>
0.060000

>  <method>
GST-hERadef,GST-mERadef,hERa,hERa-FP,MUC,RUC,RUC,RUC

>  <chemical_class>
Organochlorine

>  <set>
2

$$$$
tox-431
  Cerius2 12190218273D 1   1.00000                          
 Structure written by MMmdl.
 18 18  0  0  0  0  0  0  0  0999 V2000
   -0.3813   -1.3231   -0.6565 C   0  0  0  0  0  0
    0.9685   -0.5763   -0.6317 C   0  0  0  0  0  0
   -1.5961   -0.3750   -0.5942 C   0  0  0  0  0  0
   -0.5144   -2.4491   -2.0694 Cl  0  0  0  0  0  0
    1.0473    0.3375    0.6089 C   0  0  0  0  0  0
    2.3332   -1.7767   -0.5971 Cl  0  0  0  0  0  0
   -1.4943    0.6199    0.5790 C   0  0  0  0  0  0
   -1.8550    0.5055   -2.1529 Cl  0  0  0  0  0  0
   -0.1308    1.3283    0.7037 C   0  0  0  0  0  0
    2.6321    1.2085    0.7176 Cl  0  0  0  0  0  0
   -1.8262   -0.2739    2.1266 Cl  0  0  0  0  0  0
    0.0032    2.6654   -0.5071 Cl  0  0  0  0  0  0
   -0.4238   -1.9885    0.2143 H   0  0  0  0  0  0
    1.1077    0.0039   -1.5503 H   0  0  0  0  0  0
   -2.5074   -0.9742   -0.4802 H   0  0  0  0  0  0
    1.0333   -0.2947    1.5049 H   0  0  0  0  0  0
   -2.3016    1.3587    0.5208 H   0  0  0  0  0  0
   -0.0810    1.8462    1.6690 H   0  0  0  0  0  0
  1  2  1  0  0  0
  1  3  1  0  0  0
  1  4  1  0  0  0
  1 13  1  0  0  0
  2  5  1  0  0  0
  2  6  1  0  0  0
  2 14  1  0  0  0
  3  7  1  0  0  0
  3  8  1  0  0  0
  3 15  1  0  0  0
  5  9  1  0  0  0
  5 10  1  0  0  0
  5 16  1  0  0  0
  7  9  1  0  0  0
  7 11  1  0  0  0
  7 17  1  0  0  0
  9 12  1  0  0  0
  9 18  1  0  0  0
M  END
>  <Name>
tox-431

>  <substance>
Lindane

>  <CASRN>
58-89-9

>  <from_NCI>
1

>  <RBA>
0.000200

>  <method>
RUC,RUC

>  <chemical_class>
Chlorinated cycloalkane; Organochlorine

>  <set>
1

$$$$
tox-432
  Cerius2 12190218273D 1   1.00000                          
 Structure written by MMmdl.
 33 34  0  0  0  0  0  0  0  0999 V2000
   -0.6229    1.2102    1.1861 C   0  0  0  0  0  0
   -0.7857    2.5883    1.3207 C   0  0  0  0  0  0
    0.6499    0.8701    1.7482 C   0  0  0  0  0  0
   -1.6556    0.4715    0.5707 C   0  0  0  0  0  0
    0.3414    3.0753    1.9437 N   0  0  0  0  0  0
   -1.9272    3.2604    0.8709 C   0  0  0  0  0  0
    1.2102    2.0476    2.2046 C   0  0  0  0  0  0
    1.2621   -0.4947    1.8305 C   0  0  0  0  0  0
   -2.8105    1.1224    0.1119 C   0  0  0  0  0  0
   -2.9375    2.5023    0.2635 C   0  0  0  0  0  0
    1.9727   -0.8964    0.5354 C   0  0  0  0  0  0
   -3.7352    0.2924   -0.4647 O   0  0  0  0  0  0
    2.5255   -2.2387    0.6039 N   0  0  0  0  0  0
   -4.9346    0.8990   -0.9437 C   0  0  0  0  0  0
    3.7544   -2.5204    1.1459 C   0  0  0  0  0  0
    4.1120   -3.9820    1.1190 C   0  0  0  0  0  0
    4.4942   -1.6707    1.6389 O   0  0  0  0  0  0
   -1.5572   -0.6053    0.4516 H   0  0  0  0  0  0
    0.5019    4.0496    2.1739 H   0  0  0  0  0  0
   -2.0333    4.3365    0.9858 H   0  0  0  0  0  0
    2.1557    2.2483    2.6945 H   0  0  0  0  0  0
    0.4833   -1.2305    2.0683 H   0  0  0  0  0  0
    1.9713   -0.5278    2.6676 H   0  0  0  0  0  0
   -3.8197    3.0362   -0.0821 H   0  0  0  0  0  0
    2.7836   -0.1936    0.3105 H   0  0  0  0  0  0
    1.2759   -0.8824   -0.3100 H   0  0  0  0  0  0
    1.9640   -3.0035    0.2377 H   0  0  0  0  0  0
   -5.5611    0.1078   -1.3664 H   0  0  0  0  0  0
   -4.7202    1.6175   -1.7416 H   0  0  0  0  0  0
   -5.4930    1.3661   -0.1259 H   0  0  0  0  0  0
    5.2001   -4.0903    1.1164 H   0  0  0  0  0  0
    3.7137   -4.4652    0.2223 H   0  0  0  0  0  0
    3.6992   -4.4693    2.0062 H   0  0  0  0  0  0
  1  2  2  0  0  0
  1  3  1  0  0  0
  1  4  1  0  0  0
  2  5  1  0  0  0
  2  6  1  0  0  0
  3  7  2  0  0  0
  3  8  1  0  0  0
  4  9  2  0  0  0
  4 18  1  0  0  0
  5  7  1  0  0  0
  5 19  1  0  0  0
  6 10  2  0  0  0
  6 20  1  0  0  0
  7 21  1  0  0  0
  8 11  1  0  0  0
  8 22  1  0  0  0
  8 23  1  0  0  0
  9 10  1  0  0  0
  9 12  1  0  0  0
 10 24  1  0  0  0
 11 13  1  0  0  0
 11 25  1  0  0  0
 11 26  1  0  0  0
 12 14  1  0  0  0
 13 15  1  0  0  0
 13 27  1  0  0  0
 14 28  1  0  0  0
 14 29  1  0  0  0
 14 30  1  0  0  0
 15 16  1  0  0  0
 15 17  2  0  0  0
 16 31  1  0  0  0
 16 32  1  0  0  0
 16 33  1  0  0  0
M  END
>  <Name>
tox-432

>  <substance>
Melatonin

>  <CASRN>
73-31-4

>  <from_NCI>
1

>  <RBA>
0.000000

>  <method>
RUC

>  <chemical_class>
Aromatic heterocycle

>  <set>
1

$$$$
tox-433
  Cerius2 12190218273D 1   1.00000                          
 Structure written by MMmdl.
 64 66  0  0  0  0  0  0  0  0999 V2000
   -2.2843    0.2548    0.8476 C   0  0  0  0  0  0
   -0.9510    1.0540    0.6419 C   0  0  0  0  0  0
   -2.1088   -1.2352    0.4255 C   0  0  0  0  0  0
   -3.4906    0.8706    0.0113 C   0  0  0  0  0  0
   -2.5620    0.3836    2.1476 O   0  0  0  0  0  0
    0.2895    0.5077    1.0518 C   0  0  0  0  0  0
   -0.9086    2.3296    0.0472 C   0  0  0  0  0  0
   -2.4727   -2.3325    1.2346 C   0  0  0  0  0  0
   -1.5981   -1.5305   -0.8596 C   0  0  0  0  0  0
   -4.8237    0.1282   -0.0522 C   0  0  0  0  0  0
    1.5032    1.1835    0.8570 C   0  0  0  0  0  0
    0.3042    3.0062   -0.1421 C   0  0  0  0  0  0
   -2.3179   -3.6508    0.7907 C   0  0  0  0  0  0
   -1.4423   -2.8475   -1.3021 C   0  0  0  0  0  0
   -5.1413   -0.6728   -1.1569 C   0  0  0  0  0  0
   -5.7722    0.2595    0.9706 C   0  0  0  0  0  0
    1.5139    2.4367    0.2538 C   0  0  0  0  0  0
   -1.8008   -3.9075   -0.4756 C   0  0  0  0  0  0
   -6.3720   -1.3322   -1.2266 C   0  0  0  0  0  0
   -7.0053   -0.4014    0.8999 C   0  0  0  0  0  0
    2.6177    3.2033    0.0046 O   0  0  0  0  0  0
   -7.3098   -1.2021   -0.2001 C   0  0  0  0  0  0
    3.8957    2.6240    0.3046 C   0  0  0  0  0  0
   -8.4712   -1.8991   -0.3910 O   0  0  0  0  0  0
    4.9811    3.6469   -0.0776 C   0  0  0  0  0  0
   -9.4601   -1.7904    0.6320 C   0  0  0  0  0  0
    6.3659    3.2373    0.2577 N   0  0  0  0  0  0
    7.2764    4.3855    0.0684 C   0  0  0  0  0  0
    6.7915    2.0713   -0.5444 C   0  0  0  0  0  0
    8.6265    4.1651    0.7444 C   0  0  0  0  0  0
    6.9055    0.8467    0.3531 C   0  0  0  0  0  0
   -3.1611    1.0060   -1.0302 H   0  0  0  0  0  0
   -3.7187    1.8894    0.3626 H   0  0  0  0  0  0
    0.3130   -0.4693    1.5356 H   0  0  0  0  0  0
   -1.8148    2.8325   -0.2808 H   0  0  0  0  0  0
   -2.8925   -2.1689    2.2264 H   0  0  0  0  0  0
   -1.3162   -0.7208   -1.5325 H   0  0  0  0  0  0
    2.4136    0.6960    1.1945 H   0  0  0  0  0  0
    0.2940    3.9906   -0.6080 H   0  0  0  0  0  0
   -2.6072   -4.4770    1.4377 H   0  0  0  0  0  0
   -1.0426   -3.0418   -2.2956 H   0  0  0  0  0  0
   -4.4306   -0.7932   -1.9732 H   0  0  0  0  0  0
   -5.5529    0.8812    1.8382 H   0  0  0  0  0  0
   -1.6822   -4.9329   -0.8198 H   0  0  0  0  0  0
   -6.5948   -1.9520   -2.0934 H   0  0  0  0  0  0
   -7.7003   -0.2656    1.7241 H   0  0  0  0  0  0
    4.0212    1.7022   -0.2740 H   0  0  0  0  0  0
    3.9643    2.4106    1.3783 H   0  0  0  0  0  0
    4.7380    4.5735    0.4604 H   0  0  0  0  0  0
    4.8933    3.8969   -1.1438 H   0  0  0  0  0  0
  -10.3179   -2.3992    0.3309 H   0  0  0  0  0  0
   -9.8047   -0.7566    0.7375 H   0  0  0  0  0  0
   -9.0876   -2.1850    1.5830 H   0  0  0  0  0  0
    6.8407    5.2799    0.5318 H   0  0  0  0  0  0
    7.4134    4.6124   -0.9962 H   0  0  0  0  0  0
    7.7645    2.2326   -1.0236 H   0  0  0  0  0  0
    6.0994    1.8633   -1.3697 H   0  0  0  0  0  0
    9.2406    5.0670    0.6514 H   0  0  0  0  0  0
    9.1863    3.3382    0.2981 H   0  0  0  0  0  0
    8.4999    3.9560    1.8122 H   0  0  0  0  0  0
    7.2274   -0.0196   -0.2340 H   0  0  0  0  0  0
    5.9489    0.5956    0.8214 H   0  0  0  0  0  0
    7.6436    1.0063    1.1465 H   0  0  0  0  0  0
   -3.2817   -0.0319    2.3261 H   0  0  0  0  0  0
  1  2  1  0  0  0
  1  3  1  0  0  0
  1  4  1  0  0  0
  1  5  1  0  0  0
  2  6  2  0  0  0
  2  7  1  0  0  0
  3  8  2  0  0  0
  3  9  1  0  0  0
  4 10  1  0  0  0
  4 32  1  0  0  0
  4 33  1  0  0  0
  5 64  1  0  0  0
  6 11  1  0  0  0
  6 34  1  0  0  0
  7 12  2  0  0  0
  7 35  1  0  0  0
  8 13  1  0  0  0
  8 36  1  0  0  0
  9 14  2  0  0  0
  9 37  1  0  0  0
 10 15  2  0  0  0
 10 16  1  0  0  0
 11 17  2  0  0  0
 11 38  1  0  0  0
 12 17  1  0  0  0
 12 39  1  0  0  0
 13 18  2  0  0  0
 13 40  1  0  0  0
 14 18  1  0  0  0
 14 41  1  0  0  0
 15 19  1  0  0  0
 15 42  1  0  0  0
 16 20  2  0  0  0
 16 43  1  0  0  0
 17 21  1  0  0  0
 18 44  1  0  0  0
 19 22  2  0  0  0
 19 45  1  0  0  0
 20 22  1  0  0  0
 20 46  1  0  0  0
 21 23  1  0  0  0
 22 24  1  0  0  0
 23 25  1  0  0  0
 23 47  1  0  0  0
 23 48  1  0  0  0
 24 26  1  0  0  0
 25 27  1  0  0  0
 25 49  1  0  0  0
 25 50  1  0  0  0
 26 51  1  0  0  0
 26 52  1  0  0  0
 26 53  1  0  0  0
 27 28  1  0  0  0
 27 29  1  0  0  0
 28 30  1  0  0  0
 28 54  1  0  0  0
 28 55  1  0  0  0
 29 31  1  0  0  0
 29 56  1  0  0  0
 29 57  1  0  0  0
 30 58  1  0  0  0
 30 59  1  0  0  0
 30 60  1  0  0  0
 31 61  1  0  0  0
 31 62  1  0  0  0
 31 63  1  0  0  0
M  END
>  <Name>
tox-433

>  <substance>
MER-25

>  <CASRN>
67-98-1

>  <from_NCI>
1

>  <RBA>
0.001000

>  <method>
RBC

>  <chemical_class>
Alcohol

>  <set>
2

$$$$
tox-434
  Cerius2 12190218273D 1   1.00000                          
 Structure written by MMmdl.
 43 44  0  0  0  0  0  0  0  0999 V2000
    1.2007    0.3041   -0.5749 C   0  0  0  0  0  0
    0.5237   -0.8623   -0.4270 C   0  0  0  0  0  0
   -0.9534   -0.8873   -0.4684 C   0  0  0  0  0  0
   -1.6307   -1.0101   -1.6856 C   0  0  0  0  0  0
   -3.0280   -1.0267   -1.7138 C   0  0  0  0  0  0
   -3.7663   -0.9198   -0.5320 C   0  0  0  0  0  0
   -5.1236   -0.9487   -0.6991 O   0  0  0  0  0  0
   -3.0931   -0.7958    0.6836 C   0  0  0  0  0  0
   -1.6933   -0.7796    0.7146 C   0  0  0  0  0  0
    2.6782    0.3294   -0.5335 C   0  0  0  0  0  0
    3.4167    0.2434   -1.7211 C   0  0  0  0  0  0
    4.8129    0.2610   -1.6851 C   0  0  0  0  0  0
    5.4687    0.3644   -0.4631 C   0  0  0  0  0  0
    6.8325    0.3784   -0.4680 O   0  0  0  0  0  0
    4.7519    0.4503    0.7261 C   0  0  0  0  0  0
    3.3550    0.4324    0.6899 C   0  0  0  0  0  0
    0.5733    1.6603   -0.8540 C   0  0  0  0  0  0
    0.4275    2.5105    0.4020 C   0  0  0  0  0  0
    1.1507   -2.2188   -0.1491 C   0  0  0  0  0  0
    1.3157   -3.0602   -1.4085 C   0  0  0  0  0  0
   -5.9175   -0.8395    0.4814 C   0  0  0  0  0  0
   -1.0774   -1.0909   -2.6196 H   0  0  0  0  0  0
   -3.5401   -1.1228   -2.6697 H   0  0  0  0  0  0
   -3.6215   -0.7085    1.6290 H   0  0  0  0  0  0
   -1.1850   -0.6793    1.6726 H   0  0  0  0  0  0
    2.9092    0.1592   -2.6806 H   0  0  0  0  0  0
    5.3797    0.1931   -2.6107 H   0  0  0  0  0  0
    7.1441    0.4549    0.4592 H   0  0  0  0  0  0
    5.2582    0.5303    1.6851 H   0  0  0  0  0  0
    2.7972    0.4967    1.6227 H   0  0  0  0  0  0
   -0.4127    1.5539   -1.3184 H   0  0  0  0  0  0
    1.1738    2.2081   -1.5916 H   0  0  0  0  0  0
   -0.0735    3.4534    0.1598 H   0  0  0  0  0  0
    1.4018    2.7552    0.8366 H   0  0  0  0  0  0
   -0.1685    1.9984    1.1641 H   0  0  0  0  0  0
    0.5418   -2.7733    0.5767 H   0  0  0  0  0  0
    2.1298   -2.1129    0.3296 H   0  0  0  0  0  0
    0.3482   -3.3030   -1.8590 H   0  0  0  0  0  0
    1.8144   -4.0041   -1.1655 H   0  0  0  0  0  0
    1.9222   -2.5425   -2.1585 H   0  0  0  0  0  0
   -6.9686   -0.8785    0.1797 H   0  0  0  0  0  0
   -5.7488    0.1199    0.9815 H   0  0  0  0  0  0
   -5.7329   -1.6798    1.1587 H   0  0  0  0  0  0
  1  2  2  0  0  0
  1 10  1  0  0  0
  1 17  1  0  0  0
  2  3  1  0  0  0
  2 19  1  0  0  0
  3  4  2  0  0  0
  3  9  1  0  0  0
  4  5  1  0  0  0
  4 22  1  0  0  0
  5  6  2  0  0  0
  5 23  1  0  0  0
  6  7  1  0  0  0
  6  8  1  0  0  0
  7 21  1  0  0  0
  8  9  2  0  0  0
  8 24  1  0  0  0
  9 25  1  0  0  0
 10 11  2  0  0  0
 10 16  1  0  0  0
 11 12  1  0  0  0
 11 26  1  0  0  0
 12 13  2  0  0  0
 12 27  1  0  0  0
 13 14  1  0  0  0
 13 15  1  0  0  0
 14 28  1  0  0  0
 15 16  2  0  0  0
 15 29  1  0  0  0
 16 30  1  0  0  0
 17 18  1  0  0  0
 17 31  1  0  0  0
 17 32  1  0  0  0
 18 33  1  0  0  0
 18 34  1  0  0  0
 18 35  1  0  0  0
 19 20  1  0  0  0
 19 36  1  0  0  0
 19 37  1  0  0  0
 20 38  1  0  0  0
 20 39  1  0  0  0
 20 40  1  0  0  0
 21 41  1  0  0  0
 21 42  1  0  0  0
 21 43  1  0  0  0
M  END
>  <Name>
tox-434

>  <substance>
Mestilbol

>  <CASRN>
18839-90-2

>  <from_NCI>
0

>  <RBA>
20.000000

>  <method>
RUC

>  <chemical_class>
Stilbene

>  <set>
0

$$$$
tox-435
  Cerius2 12190218273D 1   1.00000                          
 Structure written by MMmdl.
 49 52  0  0  0  0  0  0  0  0999 V2000
    2.5982    0.3848    0.4403 C   0  0  0  0  0  0
    1.2675   -0.3734    0.4036 C   0  0  0  0  0  0
    2.4240    1.9312    0.4137 C   0  0  0  0  0  0
    3.5412    0.1464    1.6179 C   0  0  0  0  0  0
    0.5167   -0.0139   -0.9132 C   0  0  0  0  0  0
    1.4570   -1.8918    0.4664 C   0  0  0  0  0  0
    3.9347    2.3759    0.5593 C   0  0  0  0  0  0
    1.6936    2.2881   -0.9018 C   0  0  0  0  0  0
    1.5485    2.4394    1.6108 C   0  0  0  0  0  0
    4.4583    1.3937    1.6539 C   0  0  0  0  0  0
   -0.7824   -0.8085   -1.0451 C   0  0  0  0  0  0
    0.3669    1.5211   -1.0718 C   0  0  0  0  0  0
    0.0998   -2.5805    0.5762 C   0  0  0  0  0  0
    4.7206    2.1874   -0.6864 C   0  0  0  0  0  0
    4.1159    3.6295    0.9359 O   0  0  0  0  0  0
   -0.9437   -2.0351   -0.3702 C   0  0  0  0  0  0
   -1.8107   -0.3892   -1.9058 C   0  0  0  0  0  0
    5.3578    2.0049   -1.6910 C   0  0  0  0  0  0
   -2.1331   -2.7708   -0.5302 C   0  0  0  0  0  0
   -2.9857   -1.1355   -2.0632 C   0  0  0  0  0  0
   -3.1546   -2.3288   -1.3712 C   0  0  0  0  0  0
   -4.2479   -3.1475   -1.4309 O   0  0  0  0  0  0
   -5.3178   -2.7275   -2.2766 C   0  0  0  0  0  0
    3.1491    0.0740   -0.4614 H   0  0  0  0  0  0
    0.6561   -0.0868    1.2682 H   0  0  0  0  0  0
    4.1291   -0.7679    1.4853 H   0  0  0  0  0  0
    2.9919    0.0522    2.5613 H   0  0  0  0  0  0
    1.1413   -0.3517   -1.7548 H   0  0  0  0  0  0
    2.0694   -2.1812    1.3275 H   0  0  0  0  0  0
    1.9825   -2.2426   -0.4312 H   0  0  0  0  0  0
    2.3211    2.0504   -1.7686 H   0  0  0  0  0  0
    1.4997    3.3665   -0.9485 H   0  0  0  0  0  0
    1.4175    3.5265    1.5548 H   0  0  0  0  0  0
    1.9991    2.2157    2.5828 H   0  0  0  0  0  0
    0.5444    2.0094    1.6232 H   0  0  0  0  0  0
    5.5025    1.0980    1.4862 H   0  0  0  0  0  0
    4.4166    1.8218    2.6655 H   0  0  0  0  0  0
   -0.3831    1.8994   -0.3674 H   0  0  0  0  0  0
   -0.0119    1.7617   -2.0720 H   0  0  0  0  0  0
   -0.2798   -2.4611    1.5991 H   0  0  0  0  0  0
    0.2365   -3.6542    0.3991 H   0  0  0  0  0  0
   -1.7203    0.5283   -2.4841 H   0  0  0  0  0  0
    5.9228    1.8442   -2.5819 H   0  0  0  0  0  0
   -2.2615   -3.7078    0.0121 H   0  0  0  0  0  0
   -3.7430   -0.7498   -2.7406 H   0  0  0  0  0  0
   -6.1097   -3.4795   -2.2089 H   0  0  0  0  0  0
   -4.9952   -2.6750   -3.3216 H   0  0  0  0  0  0
   -5.7341   -1.7724   -1.9397 H   0  0  0  0  0  0
    4.9485    3.7912    0.9912 H   0  0  0  0  0  0
  1  2  1  0  0  0
  1  3  1  0  0  0
  1  4  1  0  0  0
  1 24  1  0  0  0
  2  5  1  0  0  0
  2  6  1  0  0  0
  2 25  1  0  0  0
  3  7  1  0  0  0
  3  8  1  0  0  0
  3  9  1  0  0  0
  4 10  1  0  0  0
  4 26  1  0  0  0
  4 27  1  0  0  0
  5 11  1  0  0  0
  5 12  1  0  0  0
  5 28  1  0  0  0
  6 13  1  0  0  0
  6 29  1  0  0  0
  6 30  1  0  0  0
  7 10  1  0  0  0
  7 14  1  0  0  0
  7 15  1  0  0  0
  8 12  1  0  0  0
  8 31  1  0  0  0
  8 32  1  0  0  0
  9 33  1  0  0  0
  9 34  1  0  0  0
  9 35  1  0  0  0
 10 36  1  0  0  0
 10 37  1  0  0  0
 11 16  2  0  0  0
 11 17  1  0  0  0
 12 38  1  0  0  0
 12 39  1  0  0  0
 13 16  1  0  0  0
 13 40  1  0  0  0
 13 41  1  0  0  0
 14 18  3  0  0  0
 15 49  1  0  0  0
 16 19  1  0  0  0
 17 20  2  0  0  0
 17 42  1  0  0  0
 18 43  1  0  0  0
 19 21  2  0  0  0
 19 44  1  0  0  0
 20 21  1  0  0  0
 20 45  1  0  0  0
 21 22  1  0  0  0
 22 23  1  0  0  0
 23 46  1  0  0  0
 23 47  1  0  0  0
 23 48  1  0  0  0
M  END
>  <Name>
tox-435

>  <substance>
Mestranol

>  <CASRN>
72-33-3

>  <from_NCI>
1

>  <RBA>
3.500000

>  <method>
RBC,RUC,RUC

>  <chemical_class>
Steroid, nonphenolic

>  <set>
0

$$$$
tox-436
  Cerius2 12190218273D 1   1.00000                          
 Structure written by MMmdl.
 34 35  0  0  0  0  0  0  0  0999 V2000
    3.4805    2.5628    1.7958 O   0  0  0  0  0  0
    2.3106    1.8543    1.8103 C   0  0  0  0  0  0
    1.0495    2.3485    1.4756 C   0  0  0  0  0  0
   -0.0725    1.5128    1.5333 C   0  0  0  0  0  0
    0.0558    0.1758    1.9284 C   0  0  0  0  0  0
   -1.1343   -0.7071    1.9872 C   0  0  0  0  0  0
   -1.8541   -0.7970    3.1302 C   0  0  0  0  0  0
   -3.2648   -1.8086    3.2852 Cl  0  0  0  0  0  0
   -1.4516    0.0887    4.5762 Cl  0  0  0  0  0  0
   -1.5369   -1.4911    0.7944 C   0  0  0  0  0  0
   -2.4242   -0.9493   -0.1434 C   0  0  0  0  0  0
   -2.8053   -1.6867   -1.2710 C   0  0  0  0  0  0
   -2.3009   -2.9718   -1.4726 C   0  0  0  0  0  0
   -2.5924   -3.7927   -2.5272 O   0  0  0  0  0  0
   -3.5011   -3.2849   -3.5031 C   0  0  0  0  0  0
   -1.4123   -3.5111   -0.5385 C   0  0  0  0  0  0
   -1.0296   -2.7783    0.5885 C   0  0  0  0  0  0
    1.3216   -0.3185    2.2601 C   0  0  0  0  0  0
    2.4392    0.5188    2.2012 C   0  0  0  0  0  0
    3.3955    3.9335    1.4087 C   0  0  0  0  0  0
    0.8981    3.3786    1.1645 H   0  0  0  0  0  0
   -1.0476    1.9187    1.2676 H   0  0  0  0  0  0
   -2.8296    0.0520   -0.0052 H   0  0  0  0  0  0
   -3.4973   -1.2232   -1.9689 H   0  0  0  0  0  0
   -3.6298   -4.0549   -4.2697 H   0  0  0  0  0  0
   -3.0959   -2.3923   -3.9908 H   0  0  0  0  0  0
   -4.4828   -3.0864   -3.0608 H   0  0  0  0  0  0
   -1.0101   -4.5124   -0.6841 H   0  0  0  0  0  0
   -0.3360   -3.2223    1.3004 H   0  0  0  0  0  0
    1.4500   -1.3548    2.5678 H   0  0  0  0  0  0
    3.4176    0.1198    2.4640 H   0  0  0  0  0  0
    4.4047    4.3541    1.4515 H   0  0  0  0  0  0
    2.7674    4.5004    2.1038 H   0  0  0  0  0  0
    3.0369    4.0296    0.3786 H   0  0  0  0  0  0
  1  2  1  0  0  0
  1 20  1  0  0  0
  2  3  2  0  0  0
  2 19  1  0  0  0
  3  4  1  0  0  0
  3 21  1  0  0  0
  4  5  2  0  0  0
  4 22  1  0  0  0
  5  6  1  0  0  0
  5 18  1  0  0  0
  6  7  2  0  0  0
  6 10  1  0  0  0
  7  8  1  0  0  0
  7  9  1  0  0  0
 10 11  2  0  0  0
 10 17  1  0  0  0
 11 12  1  0  0  0
 11 23  1  0  0  0
 12 13  2  0  0  0
 12 24  1  0  0  0
 13 14  1  0  0  0
 13 16  1  0  0  0
 14 15  1  0  0  0
 15 25  1  0  0  0
 15 26  1  0  0  0
 15 27  1  0  0  0
 16 17  2  0  0  0
 16 28  1  0  0  0
 17 29  1  0  0  0
 18 19  2  0  0  0
 18 30  1  0  0  0
 19 31  1  0  0  0
 20 32  1  0  0  0
 20 33  1  0  0  0
 20 34  1  0  0  0
M  END
>  <Name>
tox-436

>  <substance>
Methoxychlor olefin

>  <CASRN>
2132-70-9

>  <from_NCI>
1

>  <RBA>
0.000000

>  <method>
RUC

>  <chemical_class>
Organochlorine

>  <set>
2

$$$$
tox-437
  Cerius2 12190218273D 1   1.00000                          
 Structure written by MMmdl.
 64 66  0  0  0  0  0  0  0  0999 V2000
    3.1986   -0.3348    0.4706 C   0  0  0  0  0  0
    3.2747    1.1435    0.3468 C   0  0  0  0  0  0
    4.3260   -1.0402    0.7661 C   0  0  0  0  0  0
    1.8948   -1.0183    0.2516 C   0  0  0  0  0  0
    0.8718   -0.9126    1.2025 C   0  0  0  0  0  0
   -0.3716   -1.5193    0.9839 C   0  0  0  0  0  0
   -0.6074   -2.2308   -0.1926 C   0  0  0  0  0  0
    0.4138   -2.3446   -1.1388 C   0  0  0  0  0  0
    1.6542   -1.7379   -0.9245 C   0  0  0  0  0  0
    3.3273    1.7415   -0.9183 C   0  0  0  0  0  0
    3.3896    3.1348   -1.0462 C   0  0  0  0  0  0
    3.3954    3.9440    0.0902 C   0  0  0  0  0  0
    3.3384    3.3484    1.3531 C   0  0  0  0  0  0
    3.2748    1.9584    1.4840 C   0  0  0  0  0  0
    4.3106   -2.5159    0.9338 C   0  0  0  0  0  0
    5.7194   -0.4367    0.9093 C   0  0  0  0  0  0
    7.5129    0.3786    2.4825 C   0  0  0  0  0  0
    6.1610   -0.3101    2.3714 C   0  0  0  0  0  0
   -1.7742   -2.8591   -0.5299 O   0  0  0  0  0  0
   -2.9193   -2.5851    0.2916 C   0  0  0  0  0  0
   -4.1428   -3.2502   -0.3642 C   0  0  0  0  0  0
   -5.3972   -3.1386    0.4143 N   0  0  0  0  0  0
   -6.4301   -3.9884   -0.1974 C   0  0  0  0  0  0
   -5.8778   -1.7502    0.4570 C   0  0  0  0  0  0
    3.7653   -3.0944    2.0884 C   0  0  0  0  0  0
    3.7603   -4.4816    2.2493 C   0  0  0  0  0  0
    4.3006   -5.3013    1.2596 C   0  0  0  0  0  0
    4.8463   -4.7356    0.1083 C   0  0  0  0  0  0
    4.8529   -3.3485   -0.0546 C   0  0  0  0  0  0
    3.4523    5.3104    0.1041 O   0  0  0  0  0  0
    3.4750    5.9648   -1.1631 C   0  0  0  0  0  0
    1.0345   -0.3577    2.1250 H   0  0  0  0  0  0
   -1.1292   -1.4151    1.7556 H   0  0  0  0  0  0
    0.2452   -2.9003   -2.0594 H   0  0  0  0  0  0
    2.4291   -1.8282   -1.6836 H   0  0  0  0  0  0
    3.3233    1.1265   -1.8168 H   0  0  0  0  0  0
    3.4309    3.5501   -2.0495 H   0  0  0  0  0  0
    3.3384    3.9676    2.2485 H   0  0  0  0  0  0
    3.2234    1.5192    2.4786 H   0  0  0  0  0  0
    5.7748    0.5472    0.4299 H   0  0  0  0  0  0
    6.4487   -1.0483    0.3617 H   0  0  0  0  0  0
    7.8115    0.4597    3.5321 H   0  0  0  0  0  0
    7.4743    1.3886    2.0622 H   0  0  0  0  0  0
    8.2858   -0.1857    1.9509 H   0  0  0  0  0  0
    6.2308   -1.3011    2.8344 H   0  0  0  0  0  0
    5.4224    0.2610    2.9449 H   0  0  0  0  0  0
   -3.0719   -1.5023    0.3594 H   0  0  0  0  0  0
   -2.7657   -3.0097    1.2910 H   0  0  0  0  0  0
   -3.8953   -4.3129   -0.4936 H   0  0  0  0  0  0
   -4.2720   -2.8536   -1.3805 H   0  0  0  0  0  0
   -7.3572   -3.9439    0.3847 H   0  0  0  0  0  0
   -6.1127   -5.0370   -0.1991 H   0  0  0  0  0  0
   -6.6532   -3.6912   -1.2286 H   0  0  0  0  0  0
   -6.8282   -1.6914    0.9998 H   0  0  0  0  0  0
   -6.0283   -1.3336   -0.5455 H   0  0  0  0  0  0
   -5.1785   -1.1085    1.0014 H   0  0  0  0  0  0
    3.3441   -2.4669    2.8722 H   0  0  0  0  0  0
    3.3355   -4.9223    3.1492 H   0  0  0  0  0  0
    4.2960   -6.3826    1.3853 H   0  0  0  0  0  0
    5.2674   -5.3750   -0.6655 H   0  0  0  0  0  0
    5.2790   -2.9223   -0.9615 H   0  0  0  0  0  0
    3.5040    7.0432   -0.9802 H   0  0  0  0  0  0
    2.5664    5.7477   -1.7343 H   0  0  0  0  0  0
    4.3743    5.6975   -1.7276 H   0  0  0  0  0  0
  1  2  1  0  0  0
  1  3  2  0  0  0
  1  4  1  0  0  0
  2 10  2  0  0  0
  2 14  1  0  0  0
  3 15  1  0  0  0
  3 16  1  0  0  0
  4  5  2  0  0  0
  4  9  1  0  0  0
  5  6  1  0  0  0
  5 32  1  0  0  0
  6  7  2  0  0  0
  6 33  1  0  0  0
  7  8  1  0  0  0
  7 19  1  0  0  0
  8  9  2  0  0  0
  8 34  1  0  0  0
  9 35  1  0  0  0
 10 11  1  0  0  0
 10 36  1  0  0  0
 11 12  2  0  0  0
 11 37  1  0  0  0
 12 13  1  0  0  0
 12 30  1  0  0  0
 13 14  2  0  0  0
 13 38  1  0  0  0
 14 39  1  0  0  0
 15 25  2  0  0  0
 15 29  1  0  0  0
 16 18  1  0  0  0
 16 40  1  0  0  0
 16 41  1  0  0  0
 17 18  1  0  0  0
 17 42  1  0  0  0
 17 43  1  0  0  0
 17 44  1  0  0  0
 18 45  1  0  0  0
 18 46  1  0  0  0
 19 20  1  0  0  0
 20 21  1  0  0  0
 20 47  1  0  0  0
 20 48  1  0  0  0
 21 22  1  0  0  0
 21 49  1  0  0  0
 21 50  1  0  0  0
 22 23  1  0  0  0
 22 24  1  0  0  0
 23 51  1  0  0  0
 23 52  1  0  0  0
 23 53  1  0  0  0
 24 54  1  0  0  0
 24 55  1  0  0  0
 24 56  1  0  0  0
 25 26  1  0  0  0
 25 57  1  0  0  0
 26 27  2  0  0  0
 26 58  1  0  0  0
 27 28  1  0  0  0
 27 59  1  0  0  0
 28 29  2  0  0  0
 28 60  1  0  0  0
 29 61  1  0  0  0
 30 31  1  0  0  0
 31 62  1  0  0  0
 31 63  1  0  0  0
 31 64  1  0  0  0
M  END
>  <Name>
tox-437

>  <substance>
Methoxytamoxifen

>  <CASRN>


>  <from_NCI>
0

>  <RBA>
0.700000

>  <method>
RUC

>  <chemical_class>
Triphenylethylene

>  <set>
0

$$$$
tox-438
  Cerius2 12190218273D 1   1.00000                          
 Structure written by MMmdl.
 15 14  0  0  0  0  0  0  0  0999 V2000
    0.3181    0.2490    0.2035 C   0  0  0  0  0  0
   -1.1531    0.0246    0.2910 C   0  0  0  0  0  0
    0.9467   -0.9004   -0.1515 O   0  0  0  0  0  0
    0.8713    1.3195    0.4221 O   0  0  0  0  0  0
   -1.7075   -1.3376    0.0041 C   0  0  0  0  0  0
   -1.9357    1.0639    0.6282 C   0  0  0  0  0  0
    2.3692   -0.7897   -0.2628 C   0  0  0  0  0  0
   -2.7978   -1.3636    0.1066 H   0  0  0  0  0  0
   -1.2954   -2.0761    0.6997 H   0  0  0  0  0  0
   -1.4670   -1.6442   -1.0192 H   0  0  0  0  0  0
   -3.0143    0.9575    0.7071 H   0  0  0  0  0  0
   -1.5313    2.0512    0.8362 H   0  0  0  0  0  0
    2.7629   -1.7675   -0.5533 H   0  0  0  0  0  0
    2.8065   -0.5103    0.7007 H   0  0  0  0  0  0
    2.6359   -0.0630   -1.0364 H   0  0  0  0  0  0
  1  2  1  0  0  0
  1  3  1  0  0  0
  1  4  2  0  0  0
  2  5  1  0  0  0
  2  6  2  0  0  0
  3  7  1  0  0  0
  5  8  1  0  0  0
  5  9  1  0  0  0
  5 10  1  0  0  0
  6 11  1  0  0  0
  6 12  1  0  0  0
  7 13  1  0  0  0
  7 14  1  0  0  0
  7 15  1  0  0  0
M  END
>  <Name>
tox-438

>  <substance>
Methyl methacrylate

>  <CASRN>
80-62-6

>  <from_NCI>
1

>  <RBA>
0.000000

>  <method>
hERa-FP

>  <chemical_class>
Acrylate

>  <set>
1

$$$$
tox-439
  Cerius2 12190218273D 1   1.00000                          
 Structure written by MMmdl.
 19 19  0  0  0  0  0  0  0  0999 V2000
    0.1039    0.0750    0.7496 C   0  0  0  0  0  0
   -0.5711   -1.1441    0.8022 C   0  0  0  0  0  0
   -0.6111    1.2418    1.0182 C   0  0  0  0  0  0
   -1.9406   -1.1813    1.1200 C   0  0  0  0  0  0
   -1.9795    1.1796    1.3335 C   0  0  0  0  0  0
   -2.7005   -0.0283    1.3980 C   0  0  0  0  0  0
   -3.9381   -0.0745    1.6842 O   0  0  0  0  0  0
    1.5525    0.1822    0.4196 C   0  0  0  0  0  0
    2.0841   -1.0443    0.1842 O   0  0  0  0  0  0
    2.1650    1.2403    0.3713 O   0  0  0  0  0  0
    3.4781   -1.0380   -0.1425 C   0  0  0  0  0  0
   -0.0597   -2.0830    0.6011 H   0  0  0  0  0  0
   -0.1214    2.2137    0.9876 H   0  0  0  0  0  0
   -2.4215   -2.1638    1.1476 H   0  0  0  0  0  0
   -2.4911    2.1255    1.5352 H   0  0  0  0  0  0
    3.7901   -2.0721   -0.3122 H   0  0  0  0  0  0
    4.0618   -0.6292    0.6879 H   0  0  0  0  0  0
    3.6521   -0.4661   -1.0591 H   0  0  0  0  0  0
   -4.2271    0.7132    1.8202 H   0  0  0  0  0  0
  1  2  2  0  0  0
  1  3  1  0  0  0
  1  8  1  0  0  0
  2  4  1  0  0  0
  2 12  1  0  0  0
  3  5  2  0  0  0
  3 13  1  0  0  0
  4  6  2  0  0  0
  4 14  1  0  0  0
  5  6  1  0  0  0
  5 15  1  0  0  0
  6  7  1  0  0  0
  7 19  1  0  0  0
  8  9  1  0  0  0
  8 10  2  0  0  0
  9 11  1  0  0  0
 11 16  1  0  0  0
 11 17  1  0  0  0
 11 18  1  0  0  0
M  END
>  <Name>
tox-439

>  <substance>
Methyl paraben

>  <CASRN>
99-76-3

>  <from_NCI>
1

>  <RBA>
0.000400

>  <method>
RUC

>  <chemical_class>
Paraben

>  <set>
2

$$$$
tox-440
  Cerius2 12190218273D 1   1.00000                          
 Structure written by MMmdl.
 63 65  0  0  0  0  0  0  0  0999 V2000
    3.0924    0.2617    0.3148 C   0  0  0  0  0  0
    3.1400    1.7288    0.0926 C   0  0  0  0  0  0
    4.2304   -0.3978    0.6694 C   0  0  0  0  0  0
    1.8051   -0.4624    0.1383 C   0  0  0  0  0  0
    0.7857   -0.3251    1.0882 C   0  0  0  0  0  0
   -0.4432   -0.9742    0.9155 C   0  0  0  0  0  0
   -0.6666   -1.7650   -0.2124 C   0  0  0  0  0  0
    0.3520   -1.9094   -1.1581 C   0  0  0  0  0  0
    1.5765   -1.2563   -0.9916 C   0  0  0  0  0  0
    3.2099    2.2400   -1.2084 C   0  0  0  0  0  0
    3.2492    3.6203   -1.4230 C   0  0  0  0  0  0
    3.2026    4.5089   -0.3423 C   0  0  0  0  0  0
    3.1436    3.9968    0.9594 C   0  0  0  0  0  0
    3.1049    2.6168    1.1753 C   0  0  0  0  0  0
    4.2401   -1.8605    0.9219 C   0  0  0  0  0  0
    5.6083    0.2404    0.7939 C   0  0  0  0  0  0
    7.3754    1.1633    2.3338 C   0  0  0  0  0  0
    6.0283    0.4611    2.2512 C   0  0  0  0  0  0
   -1.8178   -2.4448   -0.5024 O   0  0  0  0  0  0
   -2.9622   -2.1526    0.3138 C   0  0  0  0  0  0
   -4.1697   -2.9096   -0.2667 C   0  0  0  0  0  0
   -5.4138   -2.7840    0.5263 N   0  0  0  0  0  0
   -6.4296   -3.7013   -0.0121 C   0  0  0  0  0  0
   -5.9356   -1.4111    0.4879 C   0  0  0  0  0  0
    3.2751    5.9901   -0.5752 C   0  0  0  0  0  0
    3.7292   -2.3794    2.1195 C   0  0  0  0  0  0
    3.7321   -3.7567    2.3501 C   0  0  0  0  0  0
    4.2439   -4.6241    1.3861 C   0  0  0  0  0  0
    4.7574   -4.1168    0.1931 C   0  0  0  0  0  0
    4.7580   -2.7401   -0.0385 C   0  0  0  0  0  0
    0.9397    0.2902    1.9731 H   0  0  0  0  0  0
   -1.1994   -0.8386    1.6835 H   0  0  0  0  0  0
    0.1917   -2.5257   -2.0413 H   0  0  0  0  0  0
    2.3471   -1.3718   -1.7512 H   0  0  0  0  0  0
    3.2400    1.5669   -2.0637 H   0  0  0  0  0  0
    3.3136    3.9965   -2.4430 H   0  0  0  0  0  0
    3.1226    4.6690    1.8157 H   0  0  0  0  0  0
    3.0490    2.2396    2.1948 H   0  0  0  0  0  0
    5.6488    1.1973    0.2610 H   0  0  0  0  0  0
    6.3563   -0.3861    0.2892 H   0  0  0  0  0  0
    7.6557    1.3242    3.3792 H   0  0  0  0  0  0
    7.3426    2.1380    1.8368 H   0  0  0  0  0  0
    8.1576    0.5614    1.8604 H   0  0  0  0  0  0
    6.0974   -0.4971    2.7788 H   0  0  0  0  0  0
    5.2783    1.0628    2.7760 H   0  0  0  0  0  0
   -3.1538   -1.0736    0.2985 H   0  0  0  0  0  0
   -2.7806   -2.4922    1.3402 H   0  0  0  0  0  0
   -3.8857   -3.9697   -0.3231 H   0  0  0  0  0  0
   -4.3313   -2.5939   -1.3065 H   0  0  0  0  0  0
   -7.3489   -3.6474    0.5819 H   0  0  0  0  0  0
   -6.0806   -4.7384    0.0473 H   0  0  0  0  0  0
   -6.6776   -3.4782   -1.0559 H   0  0  0  0  0  0
   -6.8839   -1.3451    1.0337 H   0  0  0  0  0  0
   -6.1043   -1.0605   -0.5366 H   0  0  0  0  0  0
   -5.2521   -0.7164    0.9870 H   0  0  0  0  0  0
    2.7723    6.2623   -1.5092 H   0  0  0  0  0  0
    4.3201    6.3099   -0.6280 H   0  0  0  0  0  0
    2.7790    6.5389    0.2325 H   0  0  0  0  0  0
    3.3270   -1.7130    2.8802 H   0  0  0  0  0  0
    3.3331   -4.1525    3.2818 H   0  0  0  0  0  0
    4.2419   -5.6981    1.5628 H   0  0  0  0  0  0
    5.1570   -4.7935   -0.5601 H   0  0  0  0  0  0
    5.1546   -2.3578   -0.9779 H   0  0  0  0  0  0
  1  2  1  0  0  0
  1  3  2  0  0  0
  1  4  1  0  0  0
  2 10  2  0  0  0
  2 14  1  0  0  0
  3 15  1  0  0  0
  3 16  1  0  0  0
  4  5  2  0  0  0
  4  9  1  0  0  0
  5  6  1  0  0  0
  5 31  1  0  0  0
  6  7  2  0  0  0
  6 32  1  0  0  0
  7  8  1  0  0  0
  7 19  1  0  0  0
  8  9  2  0  0  0
  8 33  1  0  0  0
  9 34  1  0  0  0
 10 11  1  0  0  0
 10 35  1  0  0  0
 11 12  2  0  0  0
 11 36  1  0  0  0
 12 13  1  0  0  0
 12 25  1  0  0  0
 13 14  2  0  0  0
 13 37  1  0  0  0
 14 38  1  0  0  0
 15 26  2  0  0  0
 15 30  1  0  0  0
 16 18  1  0  0  0
 16 39  1  0  0  0
 16 40  1  0  0  0
 17 18  1  0  0  0
 17 41  1  0  0  0
 17 42  1  0  0  0
 17 43  1  0  0  0
 18 44  1  0  0  0
 18 45  1  0  0  0
 19 20  1  0  0  0
 20 21  1  0  0  0
 20 46  1  0  0  0
 20 47  1  0  0  0
 21 22  1  0  0  0
 21 48  1  0  0  0
 21 49  1  0  0  0
 22 23  1  0  0  0
 22 24  1  0  0  0
 23 50  1  0  0  0
 23 51  1  0  0  0
 23 52  1  0  0  0
 24 53  1  0  0  0
 24 54  1  0  0  0
 24 55  1  0  0  0
 25 56  1  0  0  0
 25 57  1  0  0  0
 25 58  1  0  0  0
 26 27  1  0  0  0
 26 59  1  0  0  0
 27 28  2  0  0  0
 27 60  1  0  0  0
 28 29  1  0  0  0
 28 61  1  0  0  0
 29 30  2  0  0  0
 29 62  1  0  0  0
 30 63  1  0  0  0
M  END
>  <Name>
tox-440

>  <substance>
Methyltamoxifen

>  <CASRN>
73617-95-5

>  <from_NCI>
0

>  <RBA>
0.300000

>  <method>
RUC

>  <chemical_class>
Triphenylethylene

>  <set>
0

$$$$
tox-441
  Cerius2 12190218273D 1   1.00000                          
 Structure written by MMmdl.
 36 37  0  0  0  0  0  0  0  0999 V2000
   -0.0957    1.3871    0.4882 C   0  0  0  0  0  0
   -1.3699    1.0054   -0.3023 C   0  0  0  0  0  0
    1.1426    0.6049    0.0005 C   0  0  0  0  0  0
   -0.3181    1.6125    2.0309 C   0  0  0  0  0  0
   -1.8827   -0.3070   -0.3790 C   0  0  0  0  0  0
   -2.0464    2.0324   -0.9987 C   0  0  0  0  0  0
    1.7653   -0.4158    0.7315 C   0  0  0  0  0  0
    1.6779    0.9183   -1.2637 C   0  0  0  0  0  0
   -1.5631    2.9216    2.3221 Cl  0  0  0  0  0  0
    1.1967    2.2297    2.8329 Cl  0  0  0  0  0  0
   -0.8816    0.1837    2.9726 Cl  0  0  0  0  0  0
   -3.0486   -0.5549   -1.1170 C   0  0  0  0  0  0
   -1.1884   -1.2784    0.2873 O   0  0  0  0  0  0
   -3.2025    1.7715   -1.7320 C   0  0  0  0  0  0
    2.8865   -1.0924    0.2272 C   0  0  0  0  0  0
    2.7951    0.2435   -1.7649 C   0  0  0  0  0  0
   -3.7046    0.4786   -1.7882 C   0  0  0  0  0  0
   -1.6264   -2.6272    0.1516 C   0  0  0  0  0  0
    3.4071   -0.7649   -1.0224 C   0  0  0  0  0  0
    4.4890   -1.3473   -1.6222 O   0  0  0  0  0  0
    5.1457   -2.3829   -0.8927 C   0  0  0  0  0  0
    0.1517    2.4064    0.1433 H   0  0  0  0  0  0
   -1.6748    3.0571   -0.9724 H   0  0  0  0  0  0
    1.3952   -0.7247    1.7052 H   0  0  0  0  0  0
    1.2240    1.6982   -1.8755 H   0  0  0  0  0  0
   -3.4791   -1.5500   -1.1933 H   0  0  0  0  0  0
   -3.7094    2.5787   -2.2576 H   0  0  0  0  0  0
    3.3220   -1.8746    0.8437 H   0  0  0  0  0  0
    3.1842    0.5123   -2.7455 H   0  0  0  0  0  0
   -4.6082    0.2690   -2.3579 H   0  0  0  0  0  0
   -0.9306   -3.2596    0.7112 H   0  0  0  0  0  0
   -1.6003   -2.9481   -0.8948 H   0  0  0  0  0  0
   -2.6219   -2.7619    0.5867 H   0  0  0  0  0  0
    5.9825   -2.7388   -1.5014 H   0  0  0  0  0  0
    4.4735   -3.2299   -0.7209 H   0  0  0  0  0  0
    5.5554   -2.0021    0.0486 H   0  0  0  0  0  0
  1  2  1  0  0  0
  1  3  1  0  0  0
  1  4  1  0  0  0
  1 22  1  0  0  0
  2  5  2  0  0  0
  2  6  1  0  0  0
  3  7  2  0  0  0
  3  8  1  0  0  0
  4  9  1  0  0  0
  4 10  1  0  0  0
  4 11  1  0  0  0
  5 12  1  0  0  0
  5 13  1  0  0  0
  6 14  2  0  0  0
  6 23  1  0  0  0
  7 15  1  0  0  0
  7 24  1  0  0  0
  8 16  2  0  0  0
  8 25  1  0  0  0
 12 17  2  0  0  0
 12 26  1  0  0  0
 13 18  1  0  0  0
 14 17  1  0  0  0
 14 27  1  0  0  0
 15 19  2  0  0  0
 15 28  1  0  0  0
 16 19  1  0  0  0
 16 29  1  0  0  0
 17 30  1  0  0  0
 18 31  1  0  0  0
 18 32  1  0  0  0
 18 33  1  0  0  0
 19 20  1  0  0  0
 20 21  1  0  0  0
 21 34  1  0  0  0
 21 35  1  0  0  0
 21 36  1  0  0  0
M  END
>  <Name>
tox-441

>  <substance>
o,p' -Methoxychlor

>  <CASRN>
30667-99-3

>  <from_NCI>
1

>  <RBA>
0.010000

>  <method>
RUC

>  <chemical_class>
Organochlorine

>  <set>
2

$$$$
tox-442
  Cerius2 12190218273D 1   1.00000                          
 Structure written by MMmdl.
 36 37  0  0  0  0  0  0  0  0999 V2000
   -1.2396    1.0909    1.8954 C   0  0  0  0  0  0
    0.2098    0.5846    1.7494 C   0  0  0  0  0  0
   -2.0033    0.9696    0.5638 C   0  0  0  0  0  0
   -2.0621    0.6621    3.1658 C   0  0  0  0  0  0
    1.1782    1.4606    1.2243 C   0  0  0  0  0  0
    0.6192   -0.7156    2.0750 C   0  0  0  0  0  0
   -2.1353   -0.2510   -0.1136 C   0  0  0  0  0  0
   -2.5834    2.1111   -0.0161 C   0  0  0  0  0  0
   -1.0938    0.8763    4.6878 Cl  0  0  0  0  0  0
   -2.6826   -1.0324    3.1472 Cl  0  0  0  0  0  0
   -3.5280    1.7315    3.3726 Cl  0  0  0  0  0  0
    2.5052    1.0541    1.0553 C   0  0  0  0  0  0
    1.9514   -1.1217    1.9048 C   0  0  0  0  0  0
   -2.8340   -0.3250   -1.3233 C   0  0  0  0  0  0
   -3.2825    2.0342   -1.2276 C   0  0  0  0  0  0
    2.9008   -0.2382    1.3966 C   0  0  0  0  0  0
   -3.4119    0.8137   -1.8864 C   0  0  0  0  0  0
    4.2234   -0.5116    1.1843 O   0  0  0  0  0  0
   -4.0651    0.6029   -3.0692 O   0  0  0  0  0  0
    4.6694   -1.8232    1.5258 C   0  0  0  0  0  0
   -4.6739    1.7415   -3.6766 C   0  0  0  0  0  0
   -1.0992    2.1742    2.0497 H   0  0  0  0  0  0
    0.9056    2.4766    0.9379 H   0  0  0  0  0  0
   -0.0790   -1.4526    2.4613 H   0  0  0  0  0  0
   -1.6947   -1.1635    0.2839 H   0  0  0  0  0  0
   -2.4990    3.0821    0.4721 H   0  0  0  0  0  0
    3.2304    1.7580    0.6502 H   0  0  0  0  0  0
    2.2057   -2.1424    2.1789 H   0  0  0  0  0  0
   -2.9223   -1.2861   -1.8275 H   0  0  0  0  0  0
   -3.7105    2.9511   -1.6239 H   0  0  0  0  0  0
    5.7393   -1.8789    1.3032 H   0  0  0  0  0  0
    4.1621   -2.5811    0.9199 H   0  0  0  0  0  0
    4.5402   -2.0166    2.5958 H   0  0  0  0  0  0
   -5.1522    1.4081   -4.6026 H   0  0  0  0  0  0
   -3.9240    2.4946   -3.9402 H   0  0  0  0  0  0
   -5.4519    2.1627   -3.0316 H   0  0  0  0  0  0
  1  2  1  0  0  0
  1  3  1  0  0  0
  1  4  1  0  0  0
  1 22  1  0  0  0
  2  5  2  0  0  0
  2  6  1  0  0  0
  3  7  2  0  0  0
  3  8  1  0  0  0
  4  9  1  0  0  0
  4 10  1  0  0  0
  4 11  1  0  0  0
  5 12  1  0  0  0
  5 23  1  0  0  0
  6 13  2  0  0  0
  6 24  1  0  0  0
  7 14  1  0  0  0
  7 25  1  0  0  0
  8 15  2  0  0  0
  8 26  1  0  0  0
 12 16  2  0  0  0
 12 27  1  0  0  0
 13 16  1  0  0  0
 13 28  1  0  0  0
 14 17  2  0  0  0
 14 29  1  0  0  0
 15 17  1  0  0  0
 15 30  1  0  0  0
 16 18  1  0  0  0
 17 19  1  0  0  0
 18 20  1  0  0  0
 19 21  1  0  0  0
 20 31  1  0  0  0
 20 32  1  0  0  0
 20 33  1  0  0  0
 21 34  1  0  0  0
 21 35  1  0  0  0
 21 36  1  0  0  0
M  END
>  <Name>
tox-442

>  <substance>
p,p' - Methoxychlor

>  <CASRN>
72-43-5

>  <from_NCI>
1

>  <RBA>
0.002000

>  <method>
GST-hERadef,GST-mERadef,hERa,hERa,hERa-FP,MCF-7 cytosol,MUC,RBC,RUC,RUC,RUC,RUC,RUC

>  <chemical_class>
Organochlorine

>  <set>
0

$$$$
tox-443
  Cerius2 12190218273D 1   1.00000                          
 Structure written by MMmdl.
 43 46  0  0  0  0  0  0  0  0999 V2000
   -7.7922   -4.9545   10.5827 C   0  0  0  0  0  0
   -6.9650   -4.7121   11.8203 C   0  0  0  0  0  0
   -9.0893   -4.1863   10.4711 C   0  0  0  0  0  0
   -7.5984   -5.8173    9.5763 C   0  0  0  0  0  0
   -7.8033   -5.0324   13.1083 C   0  0  0  0  0  0
   -5.6104   -5.4241   11.8552 C   0  0  0  0  0  0
   -9.9270   -4.3954   11.7358 C   0  0  0  0  0  0
   -9.6895   -4.8908    9.2530 C   0  0  0  0  0  0
   -8.8688   -2.7081   10.1414 C   0  0  0  0  0  0
   -8.7239   -5.8541    8.5953 C   0  0  0  0  0  0
   -6.9656   -4.7125   14.3625 C   0  0  0  0  0  0
   -9.1206   -4.1889   13.0335 C   0  0  0  0  0  0
   -4.7817   -4.8989   13.0234 C   0  0  0  0  0  0
  -10.8284   -4.6866    8.8274 O   0  0  0  0  0  0
   -5.5534   -4.6954   14.3066 C   0  0  0  0  0  0
   -7.5851   -4.5006   15.6110 C   0  0  0  0  0  0
   -4.8114   -4.4304   15.4727 C   0  0  0  0  0  0
   -6.8366   -4.2458   16.7633 C   0  0  0  0  0  0
   -5.4539   -4.2095   16.6836 C   0  0  0  0  0  0
   -4.6863   -3.9616   17.7827 O   0  0  0  0  0  0
   -8.1785   -6.5357   13.2072 C   0  0  0  0  0  0
   -6.7374   -3.6347   11.8224 H   0  0  0  0  0  0
   -6.7471   -6.4802    9.4820 H   0  0  0  0  0  0
   -5.0518   -5.2520   10.9267 H   0  0  0  0  0  0
   -5.7352   -6.5095   11.9416 H   0  0  0  0  0  0
  -10.3629   -5.4032   11.7410 H   0  0  0  0  0  0
  -10.7850   -3.7109   11.7355 H   0  0  0  0  0  0
   -9.8247   -2.2058    9.9534 H   0  0  0  0  0  0
   -8.2599   -2.5848    9.2375 H   0  0  0  0  0  0
   -8.3676   -2.1736   10.9547 H   0  0  0  0  0  0
   -9.1671   -6.8502    8.5344 H   0  0  0  0  0  0
   -8.4167   -5.4818    7.6161 H   0  0  0  0  0  0
   -8.8764   -3.1232   13.1362 H   0  0  0  0  0  0
   -9.7875   -4.4292   13.8700 H   0  0  0  0  0  0
   -4.3496   -3.9300   12.7407 H   0  0  0  0  0  0
   -3.9472   -5.5889   13.1986 H   0  0  0  0  0  0
   -8.6677   -4.5436   15.7139 H   0  0  0  0  0  0
   -3.7236   -4.3974   15.4310 H   0  0  0  0  0  0
   -7.3519   -4.0847   17.7073 H   0  0  0  0  0  0
   -3.7436   -3.9800   17.5112 H   0  0  0  0  0  0
   -8.8619   -6.7146   14.0464 H   0  0  0  0  0  0
   -7.3016   -7.1692   13.3807 H   0  0  0  0  0  0
   -8.6746   -6.9054   12.3050 H   0  0  0  0  0  0
  1  2  1  0  0  0
  1  3  1  0  0  0
  1  4  2  0  0  0
  2  5  1  0  0  0
  2  6  1  0  0  0
  2 22  1  0  0  0
  3  7  1  0  0  0
  3  8  1  0  0  0
  3  9  1  0  0  0
  4 10  1  0  0  0
  4 23  1  0  0  0
  5 11  1  0  0  0
  5 12  1  0  0  0
  5 21  1  0  0  0
  6 13  1  0  0  0
  6 24  1  0  0  0
  6 25  1  0  0  0
  7 12  1  0  0  0
  7 26  1  0  0  0
  7 27  1  0  0  0
  8 10  1  0  0  0
  8 14  2  0  0  0
  9 28  1  0  0  0
  9 29  1  0  0  0
  9 30  1  0  0  0
 10 31  1  0  0  0
 10 32  1  0  0  0
 11 15  2  0  0  0
 11 16  1  0  0  0
 12 33  1  0  0  0
 12 34  1  0  0  0
 13 15  1  0  0  0
 13 35  1  0  0  0
 13 36  1  0  0  0
 15 17  1  0  0  0
 16 18  2  0  0  0
 16 37  1  0  0  0
 17 19  2  0  0  0
 17 38  1  0  0  0
 18 19  1  0  0  0
 18 39  1  0  0  0
 19 20  1  0  0  0
 20 40  1  0  0  0
 21 41  1  0  0  0
 21 42  1  0  0  0
 21 43  1  0  0  0
M  END
>  <Name>
tox-443

>  <substance>
9a-Methyl-14-dehydroestrone

>  <CASRN>
88598-67-8

>  <from_NCI>
0

>  <RBA>
6.000000

>  <method>
RUC

>  <chemical_class>
Steroid, phenolic

>  <set>
0

$$$$
tox-444
  Cerius2 12190218273D 1   1.00000                          
 Structure written by MMmdl.
 48 51  0  0  0  0  0  0  0  0999 V2000
   -3.3335   -1.7915   -0.6743 C   0  0  0  0  0  0
   -4.4862   -2.5265   -0.6701 O   0  0  0  0  0  0
   -3.4495   -0.5150   -0.1328 C   0  0  0  0  0  0
   -2.3435    0.3376   -0.0730 C   0  0  0  0  0  0
   -2.0967   -2.2046   -1.1645 C   0  0  0  0  0  0
   -0.9724   -1.3524   -1.1186 C   0  0  0  0  0  0
    0.3322   -1.8977   -1.6531 C   0  0  0  0  0  0
    1.4425   -0.8639   -1.8116 C   0  0  0  0  0  0
    1.4562    0.0748   -0.6019 C   0  0  0  0  0  0
    2.6582    0.9808   -0.5049 C   0  0  0  0  0  0
    3.7126    1.1098   -1.3216 C   0  0  0  0  0  0
    4.6780    2.1392   -0.8303 C   0  0  0  0  0  0
    3.8707    2.9026    0.2304 C   0  0  0  0  0  0
    4.7286    3.3366    1.2846 O   0  0  0  0  0  0
    2.7547    1.9132    0.6884 C   0  0  0  0  0  0
    3.1530    1.1262    1.9511 C   0  0  0  0  0  0
    1.4157    2.6460    0.9070 C   0  0  0  0  0  0
    0.1844    1.7263    0.8122 C   0  0  0  0  0  0
    0.1229    0.8933   -0.5107 C   0  0  0  0  0  0
   -1.0824   -0.0674   -0.5452 C   0  0  0  0  0  0
   -0.0547    1.8583   -1.7132 C   0  0  0  0  0  0
   -4.4112   -3.8431   -1.2146 C   0  0  0  0  0  0
   -4.4095   -0.1680    0.2460 H   0  0  0  0  0  0
   -2.4970    1.3325    0.3401 H   0  0  0  0  0  0
   -1.9687   -3.1954   -1.5955 H   0  0  0  0  0  0
    0.1620   -2.3787   -2.6241 H   0  0  0  0  0  0
    0.6733   -2.6768   -0.9588 H   0  0  0  0  0  0
    1.3057   -0.3036   -2.7437 H   0  0  0  0  0  0
    2.3969   -1.3960   -1.9097 H   0  0  0  0  0  0
    1.5085   -0.5791    0.2829 H   0  0  0  0  0  0
    3.8816    0.5430   -2.2280 H   0  0  0  0  0  0
    4.9836    2.8128   -1.6372 H   0  0  0  0  0  0
    5.5767    1.6699   -0.4163 H   0  0  0  0  0  0
    3.4440    3.7997   -0.2366 H   0  0  0  0  0  0
    4.1632    3.8498    1.8994 H   0  0  0  0  0  0
    3.2530    1.7917    2.8158 H   0  0  0  0  0  0
    4.1107    0.6098    1.8166 H   0  0  0  0  0  0
    2.4091    0.3671    2.2146 H   0  0  0  0  0  0
    1.2956    3.4499    0.1698 H   0  0  0  0  0  0
    1.4173    3.1453    1.8843 H   0  0  0  0  0  0
   -0.7011    2.3644    0.9150 H   0  0  0  0  0  0
    0.1706    1.0477    1.6752 H   0  0  0  0  0  0
   -0.9166    2.5196   -1.5611 H   0  0  0  0  0  0
   -0.2372    1.3195   -2.6499 H   0  0  0  0  0  0
    0.8187    2.4977   -1.8721 H   0  0  0  0  0  0
   -5.4054   -4.2929   -1.1346 H   0  0  0  0  0  0
   -3.7156   -4.4662   -0.6429 H   0  0  0  0  0  0
   -4.1415   -3.8151   -2.2754 H   0  0  0  0  0  0
  1  2  1  0  0  0
  1  3  2  0  0  0
  1  5  1  0  0  0
  2 22  1  0  0  0
  3  4  1  0  0  0
  3 23  1  0  0  0
  4 20  2  0  0  0
  4 24  1  0  0  0
  5  6  2  0  0  0
  5 25  1  0  0  0
  6  7  1  0  0  0
  6 20  1  0  0  0
  7  8  1  0  0  0
  7 26  1  0  0  0
  7 27  1  0  0  0
  8  9  1  0  0  0
  8 28  1  0  0  0
  8 29  1  0  0  0
  9 10  1  0  0  0
  9 19  1  0  0  0
  9 30  1  0  0  0
 10 11  2  0  0  0
 10 15  1  0  0  0
 11 12  1  0  0  0
 11 31  1  0  0  0
 12 13  1  0  0  0
 12 32  1  0  0  0
 12 33  1  0  0  0
 13 14  1  0  0  0
 13 15  1  0  0  0
 13 34  1  0  0  0
 14 35  1  0  0  0
 15 16  1  0  0  0
 15 17  1  0  0  0
 16 36  1  0  0  0
 16 37  1  0  0  0
 16 38  1  0  0  0
 17 18  1  0  0  0
 17 39  1  0  0  0
 17 40  1  0  0  0
 18 19  1  0  0  0
 18 41  1  0  0  0
 18 42  1  0  0  0
 19 20  1  0  0  0
 19 21  1  0  0  0
 21 43  1  0  0  0
 21 44  1  0  0  0
 21 45  1  0  0  0
 22 46  1  0  0  0
 22 47  1  0  0  0
 22 48  1  0  0  0
M  END
>  <Name>
tox-444

>  <substance>
9a-Methyl-14-dehydroestradiol-17b 3- methyl ether

>  <CASRN>
88598-64-5

>  <from_NCI>
0

>  <RBA>
0.100000

>  <method>
RUC

>  <chemical_class>
Steroid, nonphenolic

>  <set>
2

$$$$
tox-445
  Cerius2 12190218273D 1   1.00000                          
 Structure written by MMmdl.
 45 48  0  0  0  0  0  0  0  0999 V2000
   -3.7240   -2.2560   -0.5035 C   0  0  0  0  0  0
   -4.7955   -3.0988   -0.5010 O   0  0  0  0  0  0
   -3.8999   -0.9743   -0.0092 C   0  0  0  0  0  0
   -2.8224   -0.0858    0.0063 C   0  0  0  0  0  0
   -2.4873   -2.6604   -0.9900 C   0  0  0  0  0  0
   -1.3951   -1.7713   -0.9870 C   0  0  0  0  0  0
   -0.0760   -2.2903   -1.5100 C   0  0  0  0  0  0
    0.9940   -1.2236   -1.7197 C   0  0  0  0  0  0
    0.9832   -0.2384   -0.5474 C   0  0  0  0  0  0
    2.1527    0.7128   -0.4966 C   0  0  0  0  0  0
    3.1946    0.8482   -1.3281 C   0  0  0  0  0  0
    4.1265    1.9293   -0.8857 C   0  0  0  0  0  0
    3.3019    2.7030    0.1540 C   0  0  0  0  0  0
    4.1531    3.2060    1.1826 O   0  0  0  0  0  0
    2.2256    1.6929    0.6595 C   0  0  0  0  0  0
    2.6619    0.9692    1.9473 C   0  0  0  0  0  0
    0.8632    2.3858    0.8628 C   0  0  0  0  0  0
   -0.3354    1.4203    0.8144 C   0  0  0  0  0  0
   -0.3777    0.5354   -0.4753 C   0  0  0  0  0  0
   -1.5492   -0.4679   -0.4620 C   0  0  0  0  0  0
   -0.5988    1.4465   -1.7121 C   0  0  0  0  0  0
   -4.5137   -3.9591   -0.8791 H   0  0  0  0  0  0
   -4.8711   -0.6545    0.3616 H   0  0  0  0  0  0
   -3.0047    0.9195    0.3809 H   0  0  0  0  0  0
   -2.3554   -3.6693   -1.3779 H   0  0  0  0  0  0
   -0.2353   -2.8167   -2.4591 H   0  0  0  0  0  0
    0.2987   -3.0274   -0.7876 H   0  0  0  0  0  0
    0.8286   -0.7056   -2.6714 H   0  0  0  0  0  0
    1.9665   -1.7239   -1.8064 H   0  0  0  0  0  0
    1.0659   -0.8550    0.3615 H   0  0  0  0  0  0
    3.3760    0.2538   -2.2142 H   0  0  0  0  0  0
    4.4004    2.5824   -1.7205 H   0  0  0  0  0  0
    5.0453    1.5084   -0.4639 H   0  0  0  0  0  0
    2.8396    3.5665   -0.3417 H   0  0  0  0  0  0
    3.5754    3.7214    1.7839 H   0  0  0  0  0  0
    2.7451    1.6702    2.7853 H   0  0  0  0  0  0
    3.6362    0.4821    1.8234 H   0  0  0  0  0  0
    1.9476    0.1950    2.2465 H   0  0  0  0  0  0
    0.7086    3.1561    0.0967 H   0  0  0  0  0  0
    0.8548    2.9219    1.8203 H   0  0  0  0  0  0
   -1.2420    2.0304    0.9011 H   0  0  0  0  0  0
   -0.3182    0.7752    1.7026 H   0  0  0  0  0  0
   -1.4825    2.0823   -1.5777 H   0  0  0  0  0  0
   -0.7688    0.8659   -2.6258 H   0  0  0  0  0  0
    0.2501    2.1099   -1.9030 H   0  0  0  0  0  0
  1  2  1  0  0  0
  1  3  2  0  0  0
  1  5  1  0  0  0
  2 22  1  0  0  0
  3  4  1  0  0  0
  3 23  1  0  0  0
  4 20  2  0  0  0
  4 24  1  0  0  0
  5  6  2  0  0  0
  5 25  1  0  0  0
  6  7  1  0  0  0
  6 20  1  0  0  0
  7  8  1  0  0  0
  7 26  1  0  0  0
  7 27  1  0  0  0
  8  9  1  0  0  0
  8 28  1  0  0  0
  8 29  1  0  0  0
  9 10  1  0  0  0
  9 19  1  0  0  0
  9 30  1  0  0  0
 10 11  2  0  0  0
 10 15  1  0  0  0
 11 12  1  0  0  0
 11 31  1  0  0  0
 12 13  1  0  0  0
 12 32  1  0  0  0
 12 33  1  0  0  0
 13 14  1  0  0  0
 13 15  1  0  0  0
 13 34  1  0  0  0
 14 35  1  0  0  0
 15 16  1  0  0  0
 15 17  1  0  0  0
 16 36  1  0  0  0
 16 37  1  0  0  0
 16 38  1  0  0  0
 17 18  1  0  0  0
 17 39  1  0  0  0
 17 40  1  0  0  0
 18 19  1  0  0  0
 18 41  1  0  0  0
 18 42  1  0  0  0
 19 20  1  0  0  0
 19 21  1  0  0  0
 21 43  1  0  0  0
 21 44  1  0  0  0
 21 45  1  0  0  0
M  END
>  <Name>
tox-445

>  <substance>
9a-Methyl-14-dehydroestradiol-17b

>  <CASRN>
88598-63-4

>  <from_NCI>
0

>  <RBA>
41.000000

>  <method>
RUC

>  <chemical_class>
Steroid, phenolic

>  <set>
0

$$$$
tox-446
  Cerius2 12190218273D 1   1.00000                          
 Structure written by MMmdl.
 48 51  0  0  0  0  0  0  0  0999 V2000
    1.3072   -0.8974   -1.0524 C   0  0  0  0  0  0
    1.3754    0.0570    0.1567 C   0  0  0  0  0  0
    0.3068   -2.0190   -0.7304 C   0  0  0  0  0  0
   -0.0011    0.7489    0.4113 C   0  0  0  0  0  0
    2.4442    1.1475    0.0476 C   0  0  0  0  0  0
   -0.9926   -1.5467   -0.1175 C   0  0  0  0  0  0
   -1.1388   -0.2690    0.4578 C   0  0  0  0  0  0
    0.0706    1.6998    1.6399 C   0  0  0  0  0  0
    2.5792    1.9371    1.3694 C   0  0  0  0  0  0
    3.8787    0.7786   -0.3128 C   0  0  0  0  0  0
   -2.0688   -2.4541   -0.0861 C   0  0  0  0  0  0
   -2.3917    0.0736    0.9946 C   0  0  0  0  0  0
    1.2649    2.6746    1.6064 C   0  0  0  0  0  0
    3.7864    2.7836    0.9937 C   0  0  0  0  0  0
    4.6401    2.0881   -0.0553 C   0  0  0  0  0  0
   -3.2986   -2.1073    0.4740 C   0  0  0  0  0  0
   -3.4574   -0.8350    1.0096 C   0  0  0  0  0  0
    4.0617    3.8754    1.4847 O   0  0  0  0  0  0
   -4.2504   -3.0876    0.4290 O   0  0  0  0  0  0
   -5.5194   -2.7756    1.0022 C   0  0  0  0  0  0
    0.9697   -0.2235   -2.3873 C   0  0  0  0  0  0
    2.9856    1.1188    2.6101 C   0  0  0  0  0  0
    2.2892   -1.3716   -1.1811 H   0  0  0  0  0  0
    1.6113   -0.5738    1.0245 H   0  0  0  0  0  0
    0.7717   -2.7064   -0.0108 H   0  0  0  0  0  0
    0.1006   -2.5993   -1.6385 H   0  0  0  0  0  0
   -0.2233    1.3923   -0.4524 H   0  0  0  0  0  0
    2.1117    1.8475   -0.7374 H   0  0  0  0  0  0
    0.1037    1.1062    2.5618 H   0  0  0  0  0  0
   -0.8388    2.3084    1.7027 H   0  0  0  0  0  0
    3.9844    0.4629   -1.3552 H   0  0  0  0  0  0
    4.2603   -0.0300    0.3197 H   0  0  0  0  0  0
   -1.9433   -3.4505   -0.5104 H   0  0  0  0  0  0
   -2.5723    1.0641    1.4082 H   0  0  0  0  0  0
    1.3026    3.2425    2.5441 H   0  0  0  0  0  0
    1.1010    3.4163    0.8135 H   0  0  0  0  0  0
    4.6687    2.7095   -0.9550 H   0  0  0  0  0  0
    5.6478    1.9001    0.3210 H   0  0  0  0  0  0
   -4.3967   -0.5062    1.4461 H   0  0  0  0  0  0
   -6.1581   -3.6575    0.8953 H   0  0  0  0  0  0
   -5.9991   -1.9488    0.4682 H   0  0  0  0  0  0
   -5.4257   -2.5583    2.0713 H   0  0  0  0  0  0
    1.0050   -0.9574   -3.2003 H   0  0  0  0  0  0
    1.6909    0.5618   -2.6315 H   0  0  0  0  0  0
   -0.0311    0.2178   -2.3929 H   0  0  0  0  0  0
    3.1118    1.7823    3.4744 H   0  0  0  0  0  0
    3.9427    0.6036    2.4762 H   0  0  0  0  0  0
    2.2429    0.3662    2.8868 H   0  0  0  0  0  0
  1  2  1  0  0  0
  1  3  1  0  0  0
  1 21  1  0  0  0
  1 23  1  0  0  0
  2  4  1  0  0  0
  2  5  1  0  0  0
  2 24  1  0  0  0
  3  6  1  0  0  0
  3 25  1  0  0  0
  3 26  1  0  0  0
  4  7  1  0  0  0
  4  8  1  0  0  0
  4 27  1  0  0  0
  5  9  1  0  0  0
  5 10  1  0  0  0
  5 28  1  0  0  0
  6  7  2  0  0  0
  6 11  1  0  0  0
  7 12  1  0  0  0
  8 13  1  0  0  0
  8 29  1  0  0  0
  8 30  1  0  0  0
  9 13  1  0  0  0
  9 14  1  0  0  0
  9 22  1  0  0  0
 10 15  1  0  0  0
 10 31  1  0  0  0
 10 32  1  0  0  0
 11 16  2  0  0  0
 11 33  1  0  0  0
 12 17  2  0  0  0
 12 34  1  0  0  0
 13 35  1  0  0  0
 13 36  1  0  0  0
 14 15  1  0  0  0
 14 18  2  0  0  0
 15 37  1  0  0  0
 15 38  1  0  0  0
 16 17  1  0  0  0
 16 19  1  0  0  0
 17 39  1  0  0  0
 19 20  1  0  0  0
 20 40  1  0  0  0
 20 41  1  0  0  0
 20 42  1  0  0  0
 21 43  1  0  0  0
 21 44  1  0  0  0
 21 45  1  0  0  0
 22 46  1  0  0  0
 22 47  1  0  0  0
 22 48  1  0  0  0
M  END
>  <Name>
tox-446

>  <substance>
7a-Methylestrone 3-methyl ether

>  <CASRN>
10449-00-0

>  <from_NCI>
1

>  <RBA>
0.000000

>  <method>
RUC

>  <chemical_class>
Steroid, nonphenolic

>  <set>
1

$$$$
tox-447
  Cerius2 12190218273D 1   1.00000                          
 Structure written by MMmdl.
 45 48  0  0  0  0  0  0  0  0999 V2000
   -6.7835   -4.1928   16.7552 C   0  0  0  0  0  0
   -5.3808   -4.1583   16.7406 C   0  0  0  0  0  0
   -4.8127   -4.4131   15.4787 C   0  0  0  0  0  0
   -7.5607   -4.4467   15.6103 C   0  0  0  0  0  0
   -4.6841   -3.9219   17.7778 O   0  0  0  0  0  0
   -6.9690   -4.6719   14.3627 C   0  0  0  0  0  0
   -5.5663   -4.6832   14.3090 C   0  0  0  0  0  0
   -4.8060   -4.9199   13.0214 C   0  0  0  0  0  0
   -5.6399   -5.5372   11.8862 C   0  0  0  0  0  0
   -7.8112   -4.9902   13.1313 C   0  0  0  0  0  0
   -6.9924   -4.7996   11.8151 C   0  0  0  0  0  0
   -9.9740   -4.5184   11.7749 C   0  0  0  0  0  0
   -9.1695   -4.2360   13.0597 C   0  0  0  0  0  0
   -9.1246   -4.2985   10.5266 C   0  0  0  0  0  0
   -7.8806   -5.2091   10.6372 C   0  0  0  0  0  0
   -7.3113   -5.2338    9.2232 C   0  0  0  0  0  0
   -8.5649   -5.4294    8.3568 C   0  0  0  0  0  0
   -9.6738   -4.8406    9.2153 C   0  0  0  0  0  0
  -10.8518   -4.7920    8.8709 O   0  0  0  0  0  0
   -5.7431   -7.0591   12.0414 C   0  0  0  0  0  0
   -8.8499   -2.7993   10.3011 C   0  0  0  0  0  0
   -7.3182   -4.0190   17.6937 H   0  0  0  0  0  0
   -3.7214   -4.4063   15.3862 H   0  0  0  0  0  0
   -8.6417   -4.4695   15.7336 H   0  0  0  0  0  0
   -3.9296   -5.5499   13.2182 H   0  0  0  0  0  0
   -4.4295   -3.9438   12.6868 H   0  0  0  0  0  0
   -5.0922   -5.3557   10.9519 H   0  0  0  0  0  0
   -8.0658   -6.0562   13.2217 H   0  0  0  0  0  0
   -6.7480   -3.7336   11.7110 H   0  0  0  0  0  0
  -10.8673   -3.8823   11.7528 H   0  0  0  0  0  0
  -10.3429   -5.5522   11.8020 H   0  0  0  0  0  0
   -8.9956   -3.1572   13.1570 H   0  0  0  0  0  0
   -9.8051   -4.5189   13.9067 H   0  0  0  0  0  0
   -8.2257   -6.2377   10.8362 H   0  0  0  0  0  0
   -6.5980   -6.0491    9.0692 H   0  0  0  0  0  0
   -6.8029   -4.2960    8.9748 H   0  0  0  0  0  0
   -8.7698   -6.4917    8.1960 H   0  0  0  0  0  0
   -8.4828   -4.8999    7.4052 H   0  0  0  0  0  0
   -6.3162   -7.5062   11.2240 H   0  0  0  0  0  0
   -6.2092   -7.3526   12.9864 H   0  0  0  0  0  0
   -4.7444   -7.5095   12.0186 H   0  0  0  0  0  0
   -8.2680   -2.6127    9.3923 H   0  0  0  0  0  0
   -8.3174   -2.3333   11.1341 H   0  0  0  0  0  0
   -9.7956   -2.2572   10.1776 H   0  0  0  0  0  0
   -3.8588   -3.9423   17.5754 H   0  0  0  0  0  0
  1  2  2  0  0  0
  1  4  1  0  0  0
  1 22  1  0  0  0
  2  3  1  0  0  0
  2  5  1  0  0  0
  3  7  2  0  0  0
  3 23  1  0  0  0
  4  6  2  0  0  0
  4 24  1  0  0  0
  5 45  1  0  0  0
  6  7  1  0  0  0
  6 10  1  0  0  0
  7  8  1  0  0  0
  8  9  1  0  0  0
  8 25  1  0  0  0
  8 26  1  0  0  0
  9 11  1  0  0  0
  9 20  1  0  0  0
  9 27  1  0  0  0
 10 11  1  0  0  0
 10 13  1  0  0  0
 10 28  1  0  0  0
 11 15  1  0  0  0
 11 29  1  0  0  0
 12 13  1  0  0  0
 12 14  1  0  0  0
 12 30  1  0  0  0
 12 31  1  0  0  0
 13 32  1  0  0  0
 13 33  1  0  0  0
 14 15  1  0  0  0
 14 18  1  0  0  0
 14 21  1  0  0  0
 15 16  1  0  0  0
 15 34  1  0  0  0
 16 17  1  0  0  0
 16 35  1  0  0  0
 16 36  1  0  0  0
 17 18  1  0  0  0
 17 37  1  0  0  0
 17 38  1  0  0  0
 18 19  2  0  0  0
 20 39  1  0  0  0
 20 40  1  0  0  0
 20 41  1  0  0  0
 21 42  1  0  0  0
 21 43  1  0  0  0
 21 44  1  0  0  0
M  END
>  <Name>
tox-447

>  <substance>
7a-Methylestrone

>  <CASRN>
10448-96-1

>  <from_NCI>
1

>  <RBA>
68.000000

>  <method>
RUC

>  <chemical_class>
Steroid, phenolic

>  <set>
0

$$$$
tox-448
  Cerius2 12190218273D 1   1.00000                          
 Structure written by MMmdl.
 50 53  0  0  0  0  0  0  0  0999 V2000
   -5.3866   -4.1551   16.6776 C   0  0  0  0  0  0
   -4.7486   -3.8838   17.8558 O   0  0  0  0  0  0
   -6.7761   -4.1738   16.7534 C   0  0  0  0  0  0
   -7.5494   -4.4331   15.6180 C   0  0  0  0  0  0
   -4.7762   -4.4111   15.4520 C   0  0  0  0  0  0
   -5.5442   -4.6854   14.3005 C   0  0  0  0  0  0
   -4.7999   -4.9383   13.0073 C   0  0  0  0  0  0
   -5.6465   -5.5768   11.8952 C   0  0  0  0  0  0
   -6.9946   -4.8316   11.8205 C   0  0  0  0  0  0
   -7.8861   -5.2548   10.6493 C   0  0  0  0  0  0
   -7.3109   -5.2627    9.2361 C   0  0  0  0  0  0
   -8.5543   -5.2324    8.3281 C   0  0  0  0  0  0
   -9.7626   -4.9986    9.2559 C   0  0  0  0  0  0
  -10.7377   -4.1881    8.6187 O   0  0  0  0  0  0
   -9.1431   -4.3671   10.5205 C   0  0  0  0  0  0
   -8.8577   -2.8616   10.2854 C   0  0  0  0  0  0
   -9.9725   -4.5317   11.8009 C   0  0  0  0  0  0
   -9.1493   -4.2145   13.0652 C   0  0  0  0  0  0
   -7.8056   -4.9918   13.1431 C   0  0  0  0  0  0
   -6.9530   -4.6675   14.3685 C   0  0  0  0  0  0
   -3.3226   -3.8497   17.8219 C   0  0  0  0  0  0
   -5.7578   -7.0936   12.0877 C   0  0  0  0  0  0
   -7.2731   -3.9892   17.7044 H   0  0  0  0  0  0
   -8.6304   -4.4556   15.7399 H   0  0  0  0  0  0
   -3.6927   -4.4089   15.3553 H   0  0  0  0  0  0
   -3.9187   -5.5626   13.2014 H   0  0  0  0  0  0
   -4.4307   -3.9665   12.6525 H   0  0  0  0  0  0
   -5.1061   -5.4211   10.9522 H   0  0  0  0  0  0
   -6.7426   -3.7696   11.6969 H   0  0  0  0  0  0
   -8.2178   -6.2864   10.8505 H   0  0  0  0  0  0
   -6.7009   -6.1513    9.0452 H   0  0  0  0  0  0
   -6.6829   -4.3839    9.0527 H   0  0  0  0  0  0
   -8.6696   -6.1824    7.7940 H   0  0  0  0  0  0
   -8.4608   -4.4497    7.5668 H   0  0  0  0  0  0
  -10.2287   -5.9648    9.4877 H   0  0  0  0  0  0
  -11.0024   -4.6663    7.8049 H   0  0  0  0  0  0
   -9.7963   -2.3035   10.1877 H   0  0  0  0  0  0
   -8.2820   -2.6826    9.3719 H   0  0  0  0  0  0
   -8.3033   -2.4010   11.1069 H   0  0  0  0  0  0
  -10.3393   -5.5636   11.8779 H   0  0  0  0  0  0
  -10.8621   -3.8913   11.7714 H   0  0  0  0  0  0
   -9.7809   -4.4595   13.9266 H   0  0  0  0  0  0
   -8.9573   -3.1365   13.1272 H   0  0  0  0  0  0
   -8.0763   -6.0521   13.2506 H   0  0  0  0  0  0
   -2.9716   -3.6172   18.8318 H   0  0  0  0  0  0
   -2.9638   -3.0602   17.1535 H   0  0  0  0  0  0
   -2.9127   -4.8257   17.5420 H   0  0  0  0  0  0
   -6.3352   -7.5565   11.2822 H   0  0  0  0  0  0
   -6.2230   -7.3625   13.0403 H   0  0  0  0  0  0
   -4.7616   -7.5503   12.0729 H   0  0  0  0  0  0
  1  2  1  0  0  0
  1  3  2  0  0  0
  1  5  1  0  0  0
  2 21  1  0  0  0
  3  4  1  0  0  0
  3 23  1  0  0  0
  4 20  2  0  0  0
  4 24  1  0  0  0
  5  6  2  0  0  0
  5 25  1  0  0  0
  6  7  1  0  0  0
  6 20  1  0  0  0
  7  8  1  0  0  0
  7 26  1  0  0  0
  7 27  1  0  0  0
  8  9  1  0  0  0
  8 22  1  0  0  0
  8 28  1  0  0  0
  9 10  1  0  0  0
  9 19  1  0  0  0
  9 29  1  0  0  0
 10 11  1  0  0  0
 10 15  1  0  0  0
 10 30  1  0  0  0
 11 12  1  0  0  0
 11 31  1  0  0  0
 11 32  1  0  0  0
 12 13  1  0  0  0
 12 33  1  0  0  0
 12 34  1  0  0  0
 13 14  1  0  0  0
 13 15  1  0  0  0
 13 35  1  0  0  0
 14 36  1  0  0  0
 15 16  1  0  0  0
 15 17  1  0  0  0
 16 37  1  0  0  0
 16 38  1  0  0  0
 16 39  1  0  0  0
 17 18  1  0  0  0
 17 40  1  0  0  0
 17 41  1  0  0  0
 18 19  1  0  0  0
 18 42  1  0  0  0
 18 43  1  0  0  0
 19 20  1  0  0  0
 19 44  1  0  0  0
 21 45  1  0  0  0
 21 46  1  0  0  0
 21 47  1  0  0  0
 22 48  1  0  0  0
 22 49  1  0  0  0
 22 50  1  0  0  0
M  END
>  <Name>
tox-448

>  <substance>
7a-Methylestradiol-17b 3-methyl ether

>  <CASRN>
15506-01-1

>  <from_NCI>
0

>  <RBA>
5.300000

>  <method>
RUC

>  <chemical_class>
Steroid, nonphenolic

>  <set>
0

$$$$
tox-449
  Cerius2 12190218273D 1   1.00000                          
 Structure written by MMmdl.
 47 50  0  0  0  0  0  0  0  0999 V2000
   -4.2264   -1.2534    0.0230 C   0  0  0  0  0  0
   -5.4693   -1.8097   -0.0420 O   0  0  0  0  0  0
   -4.1065    0.0163    0.5634 C   0  0  0  0  0  0
   -2.8473    0.6148    0.6503 C   0  0  0  0  0  0
   -3.1062   -1.9298   -0.4425 C   0  0  0  0  0  0
   -1.8339   -1.3314   -0.3699 C   0  0  0  0  0  0
   -0.6542   -2.1282   -0.8816 C   0  0  0  0  0  0
    0.6230   -1.3051   -1.1102 C   0  0  0  0  0  0
    0.8413   -0.3940    0.1149 C   0  0  0  0  0  0
    2.1670    0.3729    0.1026 C   0  0  0  0  0  0
    3.4705   -0.3900   -0.1144 C   0  0  0  0  0  0
    4.5535    0.5620    0.4260 C   0  0  0  0  0  0
    3.8065    1.7231    1.1113 C   0  0  0  0  0  0
    4.5163    2.1738    2.2545 O   0  0  0  0  0  0
    2.4134    1.1365    1.4222 C   0  0  0  0  0  0
    2.4753    0.2462    2.6897 C   0  0  0  0  0  0
    1.2942    2.1733    1.5852 C   0  0  0  0  0  0
   -0.1036    1.5260    1.5268 C   0  0  0  0  0  0
   -0.3229    0.6316    0.2747 C   0  0  0  0  0  0
   -1.6882   -0.0525    0.2120 C   0  0  0  0  0  0
    0.5759   -0.5744   -2.4571 C   0  0  0  0  0  0
   -5.3892   -2.7003   -0.4455 H   0  0  0  0  0  0
   -4.9856    0.5509    0.9160 H   0  0  0  0  0  0
   -2.7959    1.6209    1.0613 H   0  0  0  0  0  0
   -3.2067   -2.9262   -0.8699 H   0  0  0  0  0  0
   -0.9290   -2.6447   -1.8100 H   0  0  0  0  0  0
   -0.4413   -2.9052   -0.1350 H   0  0  0  0  0  0
    1.4562   -2.0177   -1.1713 H   0  0  0  0  0  0
    0.8359   -1.0607    0.9879 H   0  0  0  0  0  0
    2.1060    1.1129   -0.7118 H   0  0  0  0  0  0
    3.6386   -0.6248   -1.1703 H   0  0  0  0  0  0
    3.4809   -1.3344    0.4409 H   0  0  0  0  0  0
    5.1765    0.9461   -0.3896 H   0  0  0  0  0  0
    5.2230    0.0372    1.1167 H   0  0  0  0  0  0
    3.7308    2.5639    0.4101 H   0  0  0  0  0  0
    3.9754    2.8902    2.6483 H   0  0  0  0  0  0
    2.6693    0.8572    3.5790 H   0  0  0  0  0  0
    3.2709   -0.5034    2.6361 H   0  0  0  0  0  0
    1.5426   -0.2921    2.8768 H   0  0  0  0  0  0
    1.3609    2.9232    0.7861 H   0  0  0  0  0  0
    1.4069    2.7199    2.5292 H   0  0  0  0  0  0
   -0.8339    2.3430    1.5431 H   0  0  0  0  0  0
   -0.2841    0.9402    2.4361 H   0  0  0  0  0  0
   -0.2994    1.3112   -0.5895 H   0  0  0  0  0  0
    1.4954   -0.0100   -2.6370 H   0  0  0  0  0  0
   -0.2692    0.1161   -2.5301 H   0  0  0  0  0  0
    0.4764   -1.2966   -3.2753 H   0  0  0  0  0  0
  1  2  1  0  0  0
  1  3  2  0  0  0
  1  5  1  0  0  0
  2 22  1  0  0  0
  3  4  1  0  0  0
  3 23  1  0  0  0
  4 20  2  0  0  0
  4 24  1  0  0  0
  5  6  2  0  0  0
  5 25  1  0  0  0
  6  7  1  0  0  0
  6 20  1  0  0  0
  7  8  1  0  0  0
  7 26  1  0  0  0
  7 27  1  0  0  0
  8  9  1  0  0  0
  8 21  1  0  0  0
  8 28  1  0  0  0
  9 10  1  0  0  0
  9 19  1  0  0  0
  9 29  1  0  0  0
 10 11  1  0  0  0
 10 15  1  0  0  0
 10 30  1  0  0  0
 11 12  1  0  0  0
 11 31  1  0  0  0
 11 32  1  0  0  0
 12 13  1  0  0  0
 12 33  1  0  0  0
 12 34  1  0  0  0
 13 14  1  0  0  0
 13 15  1  0  0  0
 13 35  1  0  0  0
 14 36  1  0  0  0
 15 16  1  0  0  0
 15 17  1  0  0  0
 16 37  1  0  0  0
 16 38  1  0  0  0
 16 39  1  0  0  0
 17 18  1  0  0  0
 17 40  1  0  0  0
 17 41  1  0  0  0
 18 19  1  0  0  0
 18 42  1  0  0  0
 18 43  1  0  0  0
 19 20  1  0  0  0
 19 44  1  0  0  0
 21 45  1  0  0  0
 21 46  1  0  0  0
 21 47  1  0  0  0
M  END
>  <Name>
tox-449

>  <substance>
7a-Methylestradiol-17b

>  <CASRN>
10448-97-2

>  <from_NCI>
0

>  <RBA>
104.000000

>  <method>
RUC

>  <chemical_class>
Steroid, phenolic

>  <set>
1

$$$$
tox-450
  Cerius2 12190218273D 1   1.00000                          
 Structure written by MMmdl.
 46 49  0  0  0  0  0  0  0  0999 V2000
    1.5421    0.1950   -2.5600 C   0  0  0  0  0  0
    0.8662   -0.2899   -1.2974 C   0  0  0  0  0  0
    1.7629    1.6872   -2.6883 C   0  0  0  0  0  0
    1.9708   -0.4848   -3.6326 C   0  0  0  0  0  0
   -0.4736    0.4749   -1.0672 C   0  0  0  0  0  0
    0.6484   -1.8152   -1.1606 C   0  0  0  0  0  0
    0.4453    2.4253   -2.4574 C   0  0  0  0  0  0
    2.2205    1.7501   -4.1455 C   0  0  0  0  0  0
    2.8965    2.1906   -1.7898 C   0  0  0  0  0  0
    2.4901    0.3827   -4.7326 C   0  0  0  0  0  0
   -1.1626    0.0205    0.2224 C   0  0  0  0  0  0
   -0.2385    2.0057   -1.1477 C   0  0  0  0  0  0
    0.2671   -2.1034    0.3011 C   0  0  0  0  0  0
    2.3863    2.7970   -4.7751 O   0  0  0  0  0  0
   -0.8230   -1.2016    0.8380 C   0  0  0  0  0  0
   -2.2123    0.7699    0.7806 C   0  0  0  0  0  0
   -1.4839   -1.5994    2.0152 C   0  0  0  0  0  0
   -2.8706    0.3562    1.9456 C   0  0  0  0  0  0
   -2.5035   -0.8279    2.5735 C   0  0  0  0  0  0
   -3.0577   -1.3414    3.7130 O   0  0  0  0  0  0
   -0.3999   -2.4168   -2.1102 C   0  0  0  0  0  0
   -4.0987   -0.5772    4.3201 C   0  0  0  0  0  0
    1.5518   -0.0102   -0.4819 H   0  0  0  0  0  0
    1.9280   -1.5600   -3.7496 H   0  0  0  0  0  0
   -1.1642    0.2212   -1.8846 H   0  0  0  0  0  0
    1.5979   -2.3302   -1.3595 H   0  0  0  0  0  0
   -0.2452    2.2370   -3.2912 H   0  0  0  0  0  0
    0.6137    3.5095   -2.4489 H   0  0  0  0  0  0
    3.0890    3.2548   -1.9689 H   0  0  0  0  0  0
    3.8343    1.6585   -1.9906 H   0  0  0  0  0  0
    2.6695    2.0682   -0.7262 H   0  0  0  0  0  0
    1.9181    0.2456   -5.6525 H   0  0  0  0  0  0
    3.5605    0.2361   -4.8898 H   0  0  0  0  0  0
    0.3572    2.3384   -0.2885 H   0  0  0  0  0  0
   -1.1889    2.5475   -1.0928 H   0  0  0  0  0  0
    1.1523   -1.9634    0.9357 H   0  0  0  0  0  0
   -0.0358   -3.1534    0.4000 H   0  0  0  0  0  0
   -2.5510    1.6936    0.3150 H   0  0  0  0  0  0
   -1.2004   -2.5332    2.5011 H   0  0  0  0  0  0
   -3.6686    0.9877    2.3271 H   0  0  0  0  0  0
   -0.3939   -3.5097   -2.0279 H   0  0  0  0  0  0
   -0.2021   -2.1696   -3.1555 H   0  0  0  0  0  0
   -1.4164   -2.0847   -1.8783 H   0  0  0  0  0  0
   -4.4253   -1.1135    5.2162 H   0  0  0  0  0  0
   -4.9611   -0.4873    3.6515 H   0  0  0  0  0  0
   -3.7335    0.4063    4.6336 H   0  0  0  0  0  0
  1  2  1  0  0  0
  1  3  1  0  0  0
  1  4  2  0  0  0
  2  5  1  0  0  0
  2  6  1  0  0  0
  2 23  1  0  0  0
  3  7  1  0  0  0
  3  8  1  0  0  0
  3  9  1  0  0  0
  4 10  1  0  0  0
  4 24  1  0  0  0
  5 11  1  0  0  0
  5 12  1  0  0  0
  5 25  1  0  0  0
  6 13  1  0  0  0
  6 21  1  0  0  0
  6 26  1  0  0  0
  7 12  1  0  0  0
  7 27  1  0  0  0
  7 28  1  0  0  0
  8 10  1  0  0  0
  8 14  2  0  0  0
  9 29  1  0  0  0
  9 30  1  0  0  0
  9 31  1  0  0  0
 10 32  1  0  0  0
 10 33  1  0  0  0
 11 15  2  0  0  0
 11 16  1  0  0  0
 12 34  1  0  0  0
 12 35  1  0  0  0
 13 15  1  0  0  0
 13 36  1  0  0  0
 13 37  1  0  0  0
 15 17  1  0  0  0
 16 18  2  0  0  0
 16 38  1  0  0  0
 17 19  2  0  0  0
 17 39  1  0  0  0
 18 19  1  0  0  0
 18 40  1  0  0  0
 19 20  1  0  0  0
 20 22  1  0  0  0
 21 41  1  0  0  0
 21 42  1  0  0  0
 21 43  1  0  0  0
 22 44  1  0  0  0
 22 45  1  0  0  0
 22 46  1  0  0  0
M  END
>  <Name>
tox-450

>  <substance>
7a-Methyl-14-dehydroestrone 3-methyl ether

>  <CASRN>
35644-57-6

>  <from_NCI>
0

>  <RBA>
0.000000

>  <method>
RUC

>  <chemical_class>
Steroid, nonphenolic

>  <set>
1

$$$$
tox-451
  Cerius2 12190218273D 1   1.00000                          
 Structure written by MMmdl.
 43 46  0  0  0  0  0  0  0  0999 V2000
    1.4735    0.2055   -1.8798 C   0  0  0  0  0  0
    0.7272   -0.2998   -0.6657 C   0  0  0  0  0  0
    1.6592    1.7035   -1.9946 C   0  0  0  0  0  0
    1.9940   -0.4607   -2.9199 C   0  0  0  0  0  0
   -0.6470    0.4253   -0.5285 C   0  0  0  0  0  0
    0.5458   -1.8309   -0.5427 C   0  0  0  0  0  0
    0.3079    2.4026   -1.8556 C   0  0  0  0  0  0
    2.2136    1.7808   -3.4171 C   0  0  0  0  0  0
    2.7134    2.2390   -1.0211 C   0  0  0  0  0  0
    2.5622    0.4222   -3.9827 C   0  0  0  0  0  0
   -1.4095   -0.0495    0.7121 C   0  0  0  0  0  0
   -0.4515    1.9624   -0.5952 C   0  0  0  0  0  0
    0.0760   -2.1318    0.8902 C   0  0  0  0  0  0
    2.3920    2.8326   -4.0350 O   0  0  0  0  0  0
   -1.0749   -1.2644    1.3518 C   0  0  0  0  0  0
   -2.5176    0.6722    1.1946 C   0  0  0  0  0  0
   -1.8001   -1.6849    2.4810 C   0  0  0  0  0  0
   -3.2397    0.2388    2.3103 C   0  0  0  0  0  0
   -2.8698   -0.9341    2.9494 C   0  0  0  0  0  0
   -3.5443   -1.3886    4.0434 O   0  0  0  0  0  0
   -0.4178   -2.4621   -1.5603 C   0  0  0  0  0  0
    1.3470   -0.0006    0.1944 H   0  0  0  0  0  0
    1.9905   -1.5366   -3.0383 H   0  0  0  0  0  0
   -1.2725    0.1519   -1.3907 H   0  0  0  0  0  0
    1.5214   -2.3174   -0.6767 H   0  0  0  0  0  0
   -0.3180    2.1947   -2.7345 H   0  0  0  0  0  0
    0.4437    3.4913   -1.8371 H   0  0  0  0  0  0
    2.8869    3.3084   -1.1881 H   0  0  0  0  0  0
    3.6778    1.7344   -1.1561 H   0  0  0  0  0  0
    2.4174    2.1096    0.0246 H   0  0  0  0  0  0
    2.0586    0.2695   -4.9395 H   0  0  0  0  0  0
    3.6445    0.3066   -4.0661 H   0  0  0  0  0  0
    0.0738    2.3119    0.3023 H   0  0  0  0  0  0
   -1.4188    2.4763   -0.6067 H   0  0  0  0  0  0
    0.9117   -1.9656    1.5828 H   0  0  0  0  0  0
   -0.2007   -3.1908    0.9695 H   0  0  0  0  0  0
   -2.8494    1.5857    0.7051 H   0  0  0  0  0  0
   -1.5301   -2.6082    2.9913 H   0  0  0  0  0  0
   -4.0851    0.8279    2.6579 H   0  0  0  0  0  0
   -4.2646   -0.7544    4.2476 H   0  0  0  0  0  0
   -0.3848   -3.5544   -1.4771 H   0  0  0  0  0  0
   -0.1576   -2.2075   -2.5901 H   0  0  0  0  0  0
   -1.4570   -2.1606   -1.3975 H   0  0  0  0  0  0
  1  2  1  0  0  0
  1  3  1  0  0  0
  1  4  2  0  0  0
  2  5  1  0  0  0
  2  6  1  0  0  0
  2 22  1  0  0  0
  3  7  1  0  0  0
  3  8  1  0  0  0
  3  9  1  0  0  0
  4 10  1  0  0  0
  4 23  1  0  0  0
  5 11  1  0  0  0
  5 12  1  0  0  0
  5 24  1  0  0  0
  6 13  1  0  0  0
  6 21  1  0  0  0
  6 25  1  0  0  0
  7 12  1  0  0  0
  7 26  1  0  0  0
  7 27  1  0  0  0
  8 10  1  0  0  0
  8 14  2  0  0  0
  9 28  1  0  0  0
  9 29  1  0  0  0
  9 30  1  0  0  0
 10 31  1  0  0  0
 10 32  1  0  0  0
 11 15  2  0  0  0
 11 16  1  0  0  0
 12 33  1  0  0  0
 12 34  1  0  0  0
 13 15  1  0  0  0
 13 35  1  0  0  0
 13 36  1  0  0  0
 15 17  1  0  0  0
 16 18  2  0  0  0
 16 37  1  0  0  0
 17 19  2  0  0  0
 17 38  1  0  0  0
 18 19  1  0  0  0
 18 39  1  0  0  0
 19 20  1  0  0  0
 20 40  1  0  0  0
 21 41  1  0  0  0
 21 42  1  0  0  0
 21 43  1  0  0  0
M  END
>  <Name>
tox-451

>  <substance>
7a-Methyl-14-dehydroestrone

>  <CASRN>
88958-66-7

>  <from_NCI>
0

>  <RBA>
52.000000

>  <method>
RUC

>  <chemical_class>
Steroid, phenolic

>  <set>
0

$$$$
tox-452
  Cerius2 12190218273D 1   1.00000                          
 Structure written by MMmdl.
 48 51  0  0  0  0  0  0  0  0999 V2000
   -2.3378   -0.4736    2.6292 C   0  0  0  0  0  0
   -3.0286   -0.9118    3.7245 O   0  0  0  0  0  0
   -2.5189    0.7405    1.9780 C   0  0  0  0  0  0
   -1.7340    1.0671    0.8649 C   0  0  0  0  0  0
   -1.3771   -1.3617    2.1448 C   0  0  0  0  0  0
   -0.5908   -1.0508    1.0194 C   0  0  0  0  0  0
    0.4226   -2.0756    0.5616 C   0  0  0  0  0  0
    0.9406   -1.8465   -0.8675 C   0  0  0  0  0  0
    1.3376   -0.3576   -0.9981 C   0  0  0  0  0  0
    2.1476    0.0190   -2.2174 C   0  0  0  0  0  0
    2.6670   -0.7466   -3.1879 C   0  0  0  0  0  0
    3.4152    0.0573   -4.2023 C   0  0  0  0  0  0
    2.9621    1.4942   -3.9096 C   0  0  0  0  0  0
    4.0171    2.4128   -4.1888 O   0  0  0  0  0  0
    2.5143    1.4791   -2.4168 C   0  0  0  0  0  0
    3.6572    1.8802   -1.4640 C   0  0  0  0  0  0
    1.2815    2.3725   -2.1960 C   0  0  0  0  0  0
    0.5253    2.0467   -0.9006 C   0  0  0  0  0  0
    0.0879    0.5609   -0.8513 C   0  0  0  0  0  0
   -0.7396    0.1982    0.3840 C   0  0  0  0  0  0
   -4.0100   -0.0252    4.2602 C   0  0  0  0  0  0
   -0.0891   -2.3353   -1.8978 C   0  0  0  0  0  0
   -3.2645    1.4623    2.3009 H   0  0  0  0  0  0
   -1.9300    2.0197    0.3761 H   0  0  0  0  0  0
   -1.2400   -2.3190    2.6480 H   0  0  0  0  0  0
   -0.0057   -3.0830    0.6379 H   0  0  0  0  0  0
    1.2699   -2.0334    1.2588 H   0  0  0  0  0  0
    1.8377   -2.4682   -0.9897 H   0  0  0  0  0  0
    1.9993   -0.1473   -0.1428 H   0  0  0  0  0  0
    2.5919   -1.8242   -3.2524 H   0  0  0  0  0  0
    3.1393   -0.2322   -5.2212 H   0  0  0  0  0  0
    4.4965   -0.0737   -4.0892 H   0  0  0  0  0  0
    2.1247    1.7402   -4.5757 H   0  0  0  0  0  0
    3.6527    3.3053   -4.0111 H   0  0  0  0  0  0
    3.9333    2.9318   -1.6004 H   0  0  0  0  0  0
    4.5554    1.2760   -1.6380 H   0  0  0  0  0  0
    3.3824    1.7522   -0.4119 H   0  0  0  0  0  0
    0.5763    2.2560   -3.0302 H   0  0  0  0  0  0
    1.5758    3.4293   -2.1920 H   0  0  0  0  0  0
   -0.3439    2.7118   -0.8614 H   0  0  0  0  0  0
    1.1397    2.2901   -0.0253 H   0  0  0  0  0  0
   -0.5722    0.3942   -1.7150 H   0  0  0  0  0  0
   -4.4583   -0.5128    5.1311 H   0  0  0  0  0  0
   -4.8081    0.1620    3.5343 H   0  0  0  0  0  0
   -3.5525    0.9100    4.5993 H   0  0  0  0  0  0
    0.2323   -2.1375   -2.9234 H   0  0  0  0  0  0
   -1.0713   -1.8728   -1.7614 H   0  0  0  0  0  0
   -0.2278   -3.4182   -1.8034 H   0  0  0  0  0  0
  1  2  1  0  0  0
  1  3  2  0  0  0
  1  5  1  0  0  0
  2 21  1  0  0  0
  3  4  1  0  0  0
  3 23  1  0  0  0
  4 20  2  0  0  0
  4 24  1  0  0  0
  5  6  2  0  0  0
  5 25  1  0  0  0
  6  7  1  0  0  0
  6 20  1  0  0  0
  7  8  1  0  0  0
  7 26  1  0  0  0
  7 27  1  0  0  0
  8  9  1  0  0  0
  8 22  1  0  0  0
  8 28  1  0  0  0
  9 10  1  0  0  0
  9 19  1  0  0  0
  9 29  1  0  0  0
 10 11  2  0  0  0
 10 15  1  0  0  0
 11 12  1  0  0  0
 11 30  1  0  0  0
 12 13  1  0  0  0
 12 31  1  0  0  0
 12 32  1  0  0  0
 13 14  1  0  0  0
 13 15  1  0  0  0
 13 33  1  0  0  0
 14 34  1  0  0  0
 15 16  1  0  0  0
 15 17  1  0  0  0
 16 35  1  0  0  0
 16 36  1  0  0  0
 16 37  1  0  0  0
 17 18  1  0  0  0
 17 38  1  0  0  0
 17 39  1  0  0  0
 18 19  1  0  0  0
 18 40  1  0  0  0
 18 41  1  0  0  0
 19 20  1  0  0  0
 19 42  1  0  0  0
 21 43  1  0  0  0
 21 44  1  0  0  0
 21 45  1  0  0  0
 22 46  1  0  0  0
 22 47  1  0  0  0
 22 48  1  0  0  0
M  END
>  <Name>
tox-452

>  <substance>
7a-Methyl-14-dehydroestradiol-17b 3- methyl ether

>  <CASRN>
35644-59-8

>  <from_NCI>
0

>  <RBA>
3.100000

>  <method>
RUC

>  <chemical_class>
Steroid, nonphenolic

>  <set>
0

$$$$
tox-453
  Cerius2 12190218273D 1   1.00000                          
 Structure written by MMmdl.
 45 48  0  0  0  0  0  0  0  0999 V2000
   -2.9117   -0.6064    3.1770 C   0  0  0  0  0  0
   -3.7079   -0.9192    4.2384 O   0  0  0  0  0  0
   -3.1076    0.6136    2.5507 C   0  0  0  0  0  0
   -2.3060    0.9697    1.4633 C   0  0  0  0  0  0
   -1.9351   -1.4832    2.7226 C   0  0  0  0  0  0
   -1.1308   -1.1394    1.6199 C   0  0  0  0  0  0
   -0.0892   -2.1395    1.1688 C   0  0  0  0  0  0
    0.4541   -1.8819   -0.2457 C   0  0  0  0  0  0
    0.8303   -0.3856   -0.3470 C   0  0  0  0  0  0
    1.6602    0.0203   -1.5433 C   0  0  0  0  0  0
    2.2110   -0.7235   -2.5134 C   0  0  0  0  0  0
    2.9683    0.1057   -3.5003 C   0  0  0  0  0  0
    2.4885    1.5317   -3.1967 C   0  0  0  0  0  0
    3.5361    2.4688   -3.4399 O   0  0  0  0  0  0
    2.0092    1.4883   -1.7143 C   0  0  0  0  0  0
    3.1253    1.8925   -0.7315 C   0  0  0  0  0  0
    0.7586    2.3601   -1.5075 C   0  0  0  0  0  0
   -0.0204    2.0043   -0.2337 C   0  0  0  0  0  0
   -0.4364    0.5115   -0.2149 C   0  0  0  0  0  0
   -1.2865    0.1191    0.9966 C   0  0  0  0  0  0
   -0.5461   -2.3720   -1.3040 C   0  0  0  0  0  0
   -3.4495   -1.8062    4.5685 H   0  0  0  0  0  0
   -3.8833    1.2929    2.8969 H   0  0  0  0  0  0
   -2.5054    1.9253    0.9828 H   0  0  0  0  0  0
   -1.7915   -2.4448    3.2126 H   0  0  0  0  0  0
   -0.5008   -3.1554    1.2224 H   0  0  0  0  0  0
    0.7425   -2.0922    1.8844 H   0  0  0  0  0  0
    1.3633   -2.4879   -0.3578 H   0  0  0  0  0  0
    1.4701   -0.1772    0.5253 H   0  0  0  0  0  0
    2.1530   -1.8010   -2.5949 H   0  0  0  0  0  0
    2.7176   -0.1728   -4.5288 H   0  0  0  0  0  0
    4.0488   -0.0116   -3.3667 H   0  0  0  0  0  0
    1.6622    1.7758   -3.8771 H   0  0  0  0  0  0
    3.1553    3.3535   -3.2577 H   0  0  0  0  0  0
    3.3885    2.9498   -0.8473 H   0  0  0  0  0  0
    4.0359    1.3041   -0.8944 H   0  0  0  0  0  0
    2.8300    1.7456    0.3125 H   0  0  0  0  0  0
    0.0734    2.2454   -2.3584 H   0  0  0  0  0  0
    1.0369    3.4209   -1.4820 H   0  0  0  0  0  0
   -0.8999    2.6560   -0.2041 H   0  0  0  0  0  0
    0.5712    2.2440    0.6582 H   0  0  0  0  0  0
   -1.0745    0.3474   -1.0954 H   0  0  0  0  0  0
   -0.2068   -2.1544   -2.3198 H   0  0  0  0  0  0
   -1.5382   -1.9269   -1.1816 H   0  0  0  0  0  0
   -0.6694   -3.4582   -1.2278 H   0  0  0  0  0  0
  1  2  1  0  0  0
  1  3  2  0  0  0
  1  5  1  0  0  0
  2 22  1  0  0  0
  3  4  1  0  0  0
  3 23  1  0  0  0
  4 20  2  0  0  0
  4 24  1  0  0  0
  5  6  2  0  0  0
  5 25  1  0  0  0
  6  7  1  0  0  0
  6 20  1  0  0  0
  7  8  1  0  0  0
  7 26  1  0  0  0
  7 27  1  0  0  0
  8  9  1  0  0  0
  8 21  1  0  0  0
  8 28  1  0  0  0
  9 10  1  0  0  0
  9 19  1  0  0  0
  9 29  1  0  0  0
 10 11  2  0  0  0
 10 15  1  0  0  0
 11 12  1  0  0  0
 11 30  1  0  0  0
 12 13  1  0  0  0
 12 31  1  0  0  0
 12 32  1  0  0  0
 13 14  1  0  0  0
 13 15  1  0  0  0
 13 33  1  0  0  0
 14 34  1  0  0  0
 15 16  1  0  0  0
 15 17  1  0  0  0
 16 35  1  0  0  0
 16 36  1  0  0  0
 16 37  1  0  0  0
 17 18  1  0  0  0
 17 38  1  0  0  0
 17 39  1  0  0  0
 18 19  1  0  0  0
 18 40  1  0  0  0
 18 41  1  0  0  0
 19 20  1  0  0  0
 19 42  1  0  0  0
 21 43  1  0  0  0
 21 44  1  0  0  0
 21 45  1  0  0  0
M  END
>  <Name>
tox-453

>  <substance>
7a-Methyl-14-dehydroestradiol-17b

>  <CASRN>
88598-62-3

>  <from_NCI>
0

>  <RBA>
74.000000

>  <method>
RUC

>  <chemical_class>
Steroid, phenolic

>  <set>
0

$$$$
tox-454
  Cerius2 12190218273D 1   1.00000                          
 Structure written by MMmdl.
 29 30  0  0  0  0  0  0  0  0999 V2000
   -0.3631   -0.1694    2.4807 C   0  0  0  0  0  0
    1.0432   -0.7248    2.5051 C   0  0  0  0  0  0
   -1.4420   -0.9715    2.0891 C   0  0  0  0  0  0
   -0.6107    1.1656    2.8234 C   0  0  0  0  0  0
    1.7924   -0.5425    1.2042 C   0  0  0  0  0  0
   -2.7409   -0.4511    2.0594 C   0  0  0  0  0  0
   -1.9125    1.6784    2.7908 C   0  0  0  0  0  0
    1.7163   -1.5091    0.1937 C   0  0  0  0  0  0
    2.5689    0.6011    0.9803 C   0  0  0  0  0  0
   -2.9928    0.8694    2.4350 C   0  0  0  0  0  0
    2.4046   -1.3328   -1.0121 C   0  0  0  0  0  0
    3.2541    0.7698   -0.2283 C   0  0  0  0  0  0
   -4.2674    1.3969    2.3429 N   0  0  0  0  0  0
    3.1593   -0.1819   -1.2449 C   0  0  0  0  0  0
    3.8890   -0.0421   -2.4107 N   0  0  0  0  0  0
    1.0134   -1.7915    2.7649 H   0  0  0  0  0  0
    1.6074   -0.2579    3.3237 H   0  0  0  0  0  0
   -1.2807   -2.0088    1.7984 H   0  0  0  0  0  0
    0.2092    1.8210    3.1144 H   0  0  0  0  0  0
   -3.5587   -1.0951    1.7398 H   0  0  0  0  0  0
   -2.0732    2.7233    3.0513 H   0  0  0  0  0  0
    1.1248   -2.4122    0.3384 H   0  0  0  0  0  0
    2.6527    1.3694    1.7479 H   0  0  0  0  0  0
    2.3393   -2.1082   -1.7736 H   0  0  0  0  0  0
    3.8625    1.6619   -0.3683 H   0  0  0  0  0  0
   -4.4748    2.3108    2.7389 H   0  0  0  0  0  0
   -5.0691    0.7836    2.2153 H   0  0  0  0  0  0
    4.3300    0.8462   -2.6378 H   0  0  0  0  0  0
    3.7205   -0.6616   -3.2000 H   0  0  0  0  0  0
  1  2  1  0  0  0
  1  3  2  0  0  0
  1  4  1  0  0  0
  2  5  1  0  0  0
  2 16  1  0  0  0
  2 17  1  0  0  0
  3  6  1  0  0  0
  3 18  1  0  0  0
  4  7  2  0  0  0
  4 19  1  0  0  0
  5  8  2  0  0  0
  5  9  1  0  0  0
  6 10  2  0  0  0
  6 20  1  0  0  0
  7 10  1  0  0  0
  7 21  1  0  0  0
  8 11  1  0  0  0
  8 22  1  0  0  0
  9 12  2  0  0  0
  9 23  1  0  0  0
 10 13  1  0  0  0
 11 14  2  0  0  0
 11 24  1  0  0  0
 12 14  1  0  0  0
 12 25  1  0  0  0
 13 26  1  0  0  0
 13 27  1  0  0  0
 14 15  1  0  0  0
 15 28  1  0  0  0
 15 29  1  0  0  0
M  END
>  <Name>
tox-454

>  <substance>
4,4'-Methylenedianiline

>  <CASRN>
101-77-9

>  <from_NCI>
1

>  <RBA>
0.000000

>  <method>
RUC

>  <chemical_class>
Aniline

>  <set>
1

$$$$
tox-455
  Cerius2 12190218273D 1   1.00000                          
 Structure written by MMmdl.
 41 42  0  0  0  0  0  0  0  0999 V2000
   -0.3807   -0.6379    2.3729 C   0  0  0  0  0  0
    0.9521   -1.3475    2.3102 C   0  0  0  0  0  0
   -1.5211   -1.2009    1.7983 C   0  0  0  0  0  0
   -0.5022    0.6078    2.9902 C   0  0  0  0  0  0
    1.7652   -1.0073    1.0825 C   0  0  0  0  0  0
   -2.7546   -0.5330    1.8520 C   0  0  0  0  0  0
   -1.7410    1.2662    3.0377 C   0  0  0  0  0  0
    1.6397   -1.7526   -0.0907 C   0  0  0  0  0  0
    2.6487    0.0731    1.0838 C   0  0  0  0  0  0
   -2.9058    0.7188    2.4729 C   0  0  0  0  0  0
    2.3909   -1.4261   -1.2307 C   0  0  0  0  0  0
    3.3945    0.3900   -0.0624 C   0  0  0  0  0  0
   -4.1297    1.3743    2.5244 N   0  0  0  0  0  0
    3.2916   -0.3474   -1.2544 C   0  0  0  0  0  0
   -4.2684    2.6773    3.1782 C   0  0  0  0  0  0
   -5.3319    0.7898    1.9267 C   0  0  0  0  0  0
    4.0333   -0.0296   -2.3855 N   0  0  0  0  0  0
    4.9658    1.0993   -2.3917 C   0  0  0  0  0  0
    3.9120   -0.8093   -3.6190 C   0  0  0  0  0  0
    0.7926   -2.4333    2.3565 H   0  0  0  0  0  0
    1.5348   -1.1164    3.2121 H   0  0  0  0  0  0
   -1.4667   -2.1685    1.3005 H   0  0  0  0  0  0
    0.3659    1.0846    3.4442 H   0  0  0  0  0  0
   -3.6007   -1.0336    1.3847 H   0  0  0  0  0  0
   -1.7604    2.2331    3.5371 H   0  0  0  0  0  0
    0.9554   -2.5992   -0.1349 H   0  0  0  0  0  0
    2.7701    0.6843    1.9775 H   0  0  0  0  0  0
    2.2424   -2.0527   -2.1082 H   0  0  0  0  0  0
    4.0645    1.2445    0.0129 H   0  0  0  0  0  0
   -5.2972    3.0502    3.1320 H   0  0  0  0  0  0
   -3.6354    3.4256    2.6889 H   0  0  0  0  0  0
   -4.0011    2.6095    4.2384 H   0  0  0  0  0  0
   -6.2074    1.4352    2.0552 H   0  0  0  0  0  0
   -5.5713   -0.1701    2.3973 H   0  0  0  0  0  0
   -5.1978    0.6451    0.8491 H   0  0  0  0  0  0
    5.4674    1.2097   -3.3591 H   0  0  0  0  0  0
    5.7502    0.9583   -1.6401 H   0  0  0  0  0  0
    4.4378    2.0392   -2.1970 H   0  0  0  0  0  0
    4.5649   -0.4261   -4.4105 H   0  0  0  0  0  0
    2.8870   -0.7692   -4.0036 H   0  0  0  0  0  0
    4.1974   -1.8529   -3.4476 H   0  0  0  0  0  0
  1  2  1  0  0  0
  1  3  2  0  0  0
  1  4  1  0  0  0
  2  5  1  0  0  0
  2 20  1  0  0  0
  2 21  1  0  0  0
  3  6  1  0  0  0
  3 22  1  0  0  0
  4  7  2  0  0  0
  4 23  1  0  0  0
  5  8  2  0  0  0
  5  9  1  0  0  0
  6 10  2  0  0  0
  6 24  1  0  0  0
  7 10  1  0  0  0
  7 25  1  0  0  0
  8 11  1  0  0  0
  8 26  1  0  0  0
  9 12  2  0  0  0
  9 27  1  0  0  0
 10 13  1  0  0  0
 11 14  2  0  0  0
 11 28  1  0  0  0
 12 14  1  0  0  0
 12 29  1  0  0  0
 13 15  1  0  0  0
 13 16  1  0  0  0
 14 17  1  0  0  0
 15 30  1  0  0  0
 15 31  1  0  0  0
 15 32  1  0  0  0
 16 33  1  0  0  0
 16 34  1  0  0  0
 16 35  1  0  0  0
 17 18  1  0  0  0
 17 19  1  0  0  0
 18 36  1  0  0  0
 18 37  1  0  0  0
 18 38  1  0  0  0
 19 39  1  0  0  0
 19 40  1  0  0  0
 19 41  1  0  0  0
M  END
>  <Name>
tox-455

>  <substance>
4,4'-Methylenebis(N,N-dimethylaniline)

>  <CASRN>
101-61-1

>  <from_NCI>
1

>  <RBA>
0.000000

>  <method>
RUC

>  <chemical_class>
Aniline

>  <set>
1

$$$$
tox-456
  Cerius2 12190218273D 1   1.00000                          
 Structure written by MMmdl.
 48 51  0  0  0  0  0  0  0  0999 V2000
    1.3426    0.0878   -0.4000 C   0  0  0  0  0  0
   -0.0225    0.8070   -0.1816 C   0  0  0  0  0  0
    2.4455    1.1462   -0.5129 C   0  0  0  0  0  0
    1.2411   -0.7965   -1.6461 C   0  0  0  0  0  0
   -1.1777   -0.1933   -0.1424 C   0  0  0  0  0  0
    0.0437    1.7816    1.0223 C   0  0  0  0  0  0
    2.5888    2.0126    0.7677 C   0  0  0  0  0  0
    3.8795    0.6959   -0.8102 C   0  0  0  0  0  0
    0.2285   -1.9137   -1.4105 C   0  0  0  0  0  0
   -1.0562   -1.4525   -0.7633 C   0  0  0  0  0  0
   -2.4159    0.1430    0.4302 C   0  0  0  0  0  0
    1.2439    2.7467    0.9678 C   0  0  0  0  0  0
    3.7950    2.9394    0.3086 C   0  0  0  0  0  0
    4.7958    1.8936   -0.3604 C   0  0  0  0  0  0
   -2.1420   -2.3481   -0.7478 C   0  0  0  0  0  0
   -3.4917   -0.7542    0.4309 C   0  0  0  0  0  0
    4.3926    3.5571    1.3217 O   0  0  0  0  0  0
    5.3431    2.4316   -1.4421 O   0  0  0  0  0  0
   -3.3578   -2.0076   -0.1544 C   0  0  0  0  0  0
   -4.3224   -2.9743   -0.2187 O   0  0  0  0  0  0
   -5.5788   -2.6673    0.3839 C   0  0  0  0  0  0
    2.8955    1.1598    2.0404 C   0  0  0  0  0  0
    1.5528   -0.5726    0.4505 H   0  0  0  0  0  0
   -0.2166    1.4276   -1.0703 H   0  0  0  0  0  0
    2.1582    1.8058   -1.3486 H   0  0  0  0  0  0
    2.2088   -1.2461   -1.8944 H   0  0  0  0  0  0
    0.9378   -0.1932   -2.5114 H   0  0  0  0  0  0
    0.0594    1.2145    1.9607 H   0  0  0  0  0  0
   -0.8605    2.4003    1.0576 H   0  0  0  0  0  0
    3.9975    0.4125   -1.8641 H   0  0  0  0  0  0
    4.1277   -0.1950   -0.2188 H   0  0  0  0  0  0
    0.6792   -2.6724   -0.7577 H   0  0  0  0  0  0
    0.0082   -2.3951   -2.3710 H   0  0  0  0  0  0
   -2.5780    1.1182    0.8853 H   0  0  0  0  0  0
    1.2703    3.3469    1.8853 H   0  0  0  0  0  0
    1.0812    3.4526    0.1430 H   0  0  0  0  0  0
    3.3790    3.5688   -0.4986 H   0  0  0  0  0  0
    5.4502    1.4772    0.4226 H   0  0  0  0  0  0
   -2.0347   -3.3296   -1.2100 H   0  0  0  0  0  0
   -4.4192   -0.4316    0.8966 H   0  0  0  0  0  0
   -6.2306   -3.5367    0.2549 H   0  0  0  0  0  0
   -6.0553   -1.8157   -0.1128 H   0  0  0  0  0  0
   -5.4670   -2.4900    1.4587 H   0  0  0  0  0  0
    2.9646    1.8025    2.9258 H   0  0  0  0  0  0
    3.8411    0.6155    1.9593 H   0  0  0  0  0  0
    2.1206    0.4205    2.2563 H   0  0  0  0  0  0
    5.0277    4.0381    1.0254 H   0  0  0  0  0  0
    5.8417    3.0811   -1.2142 H   0  0  0  0  0  0
  1  2  1  0  0  0
  1  3  1  0  0  0
  1  4  1  0  0  0
  1 23  1  0  0  0
  2  5  1  0  0  0
  2  6  1  0  0  0
  2 24  1  0  0  0
  3  7  1  0  0  0
  3  8  1  0  0  0
  3 25  1  0  0  0
  4  9  1  0  0  0
  4 26  1  0  0  0
  4 27  1  0  0  0
  5 10  2  0  0  0
  5 11  1  0  0  0
  6 12  1  0  0  0
  6 28  1  0  0  0
  6 29  1  0  0  0
  7 12  1  0  0  0
  7 13  1  0  0  0
  7 22  1  0  0  0
  8 14  1  0  0  0
  8 30  1  0  0  0
  8 31  1  0  0  0
  9 10  1  0  0  0
  9 32  1  0  0  0
  9 33  1  0  0  0
 10 15  1  0  0  0
 11 16  2  0  0  0
 11 34  1  0  0  0
 12 35  1  0  0  0
 12 36  1  0  0  0
 13 14  1  0  0  0
 13 17  1  0  0  0
 13 37  1  0  0  0
 14 18  1  0  0  0
 14 38  1  0  0  0
 15 19  2  0  0  0
 15 39  1  0  0  0
 16 19  1  0  0  0
 16 40  1  0  0  0
 17 47  1  0  0  0
 18 48  1  0  0  0
 19 20  1  0  0  0
 20 21  1  0  0  0
 21 41  1  0  0  0
 21 42  1  0  0  0
 21 43  1  0  0  0
 22 44  1  0  0  0
 22 45  1  0  0  0
 22 46  1  0  0  0
M  END
>  <Name>
tox-456

>  <substance>
3-Methoxyestriol

>  <CASRN>
1474-53-9

>  <from_NCI>
1

>  <RBA>
0.020000

>  <method>
RUC

>  <chemical_class>
Steroid, nonphenolic

>  <set>
0

$$$$
tox-457
  Cerius2 12190218273D 1   1.00000                          
 Structure written by MMmdl.
 42 45  0  0  0  0  0  0  0  0999 V2000
    0.7650    1.8384   -0.2380 S   0  0  0  0  0  0
   -0.1173    0.2895   -0.0510 C   0  0  0  0  0  0
    0.5472   -0.9505   -0.0062 C   0  0  0  0  0  0
    2.0168   -1.1093   -0.2601 C   0  0  0  0  0  0
    2.9612   -0.3777    0.3964 C   0  0  0  0  0  0
    2.6476    0.6292    1.4552 C   0  0  0  0  0  0
    1.7461    1.6946    1.2547 C   0  0  0  0  0  0
   -0.2244   -2.1066    0.2052 C   0  0  0  0  0  0
   -1.6138   -2.0379    0.3668 C   0  0  0  0  0  0
   -2.2634   -0.8086    0.3120 C   0  0  0  0  0  0
   -1.5115    0.3495    0.1036 C   0  0  0  0  0  0
    1.5552    2.6571    2.2575 C   0  0  0  0  0  0
    2.2435    2.5651    3.4664 C   0  0  0  0  0  0
    3.1233    1.5100    3.6829 C   0  0  0  0  0  0
    3.3250    0.5523    2.6860 C   0  0  0  0  0  0
    2.4768   -2.0998   -1.2759 C   0  0  0  0  0  0
    2.2823   -1.8398   -2.6393 C   0  0  0  0  0  0
    2.6978   -2.7652   -3.5990 C   0  0  0  0  0  0
    3.3048   -3.9568   -3.2038 C   0  0  0  0  0  0
    3.4959   -4.2272   -1.8494 C   0  0  0  0  0  0
    3.0819   -3.3041   -0.8872 C   0  0  0  0  0  0
    4.4512   -0.4739    0.1129 C   0  0  0  0  0  0
   -3.6086   -0.6038    0.4498 O   0  0  0  0  0  0
   -4.4156   -1.7607    0.6656 C   0  0  0  0  0  0
    0.2496   -3.0868    0.2452 H   0  0  0  0  0  0
   -2.1513   -2.9686    0.5278 H   0  0  0  0  0  0
   -2.0219    1.3111    0.0731 H   0  0  0  0  0  0
    0.8585    3.4809    2.1103 H   0  0  0  0  0  0
    2.0865    3.3132    4.2413 H   0  0  0  0  0  0
    3.6583    1.4313    4.6278 H   0  0  0  0  0  0
    4.0219   -0.2611    2.8848 H   0  0  0  0  0  0
    1.8097   -0.9135   -2.9621 H   0  0  0  0  0  0
    2.5468   -2.5559   -4.6565 H   0  0  0  0  0  0
    3.6276   -4.6775   -3.9533 H   0  0  0  0  0  0
    3.9666   -5.1591   -1.5413 H   0  0  0  0  0  0
    3.2321   -3.5296    0.1673 H   0  0  0  0  0  0
    4.9373    0.5027    0.2259 H   0  0  0  0  0  0
    4.6707   -0.7904   -0.9110 H   0  0  0  0  0  0
    4.9294   -1.1788    0.8011 H   0  0  0  0  0  0
   -5.4549   -1.4294    0.7523 H   0  0  0  0  0  0
   -4.1447   -2.2599    1.6016 H   0  0  0  0  0  0
   -4.3536   -2.4477   -0.1848 H   0  0  0  0  0  0
  1  2  1  0  0  0
  1  7  1  0  0  0
  2  3  2  0  0  0
  2 11  1  0  0  0
  3  4  1  0  0  0
  3  8  1  0  0  0
  4  5  2  0  0  0
  4 16  1  0  0  0
  5  6  1  0  0  0
  5 22  1  0  0  0
  6  7  2  0  0  0
  6 15  1  0  0  0
  7 12  1  0  0  0
  8  9  2  0  0  0
  8 25  1  0  0  0
  9 10  1  0  0  0
  9 26  1  0  0  0
 10 11  2  0  0  0
 10 23  1  0  0  0
 11 27  1  0  0  0
 12 13  2  0  0  0
 12 28  1  0  0  0
 13 14  1  0  0  0
 13 29  1  0  0  0
 14 15  2  0  0  0
 14 30  1  0  0  0
 15 31  1  0  0  0
 16 17  2  0  0  0
 16 21  1  0  0  0
 17 18  1  0  0  0
 17 32  1  0  0  0
 18 19  2  0  0  0
 18 33  1  0  0  0
 19 20  1  0  0  0
 19 34  1  0  0  0
 20 21  2  0  0  0
 20 35  1  0  0  0
 21 36  1  0  0  0
 22 37  1  0  0  0
 22 38  1  0  0  0
 22 39  1  0  0  0
 23 24  1  0  0  0
 24 40  1  0  0  0
 24 41  1  0  0  0
 24 42  1  0  0  0
M  END
>  <Name>
tox-457

>  <substance>
3-Methoxy-10-methyl-11- phenyldibenzo[b,f] thiepin (16b)

>  <CASRN>
85807-06-1

>  <from_NCI>
0

>  <RBA>
0.005000

>  <method>
RUC

>  <chemical_class>
Triphenylethylene

>  <set>
1

$$$$
tox-458
  Cerius2 12190218273D 1   1.00000                          
 Structure written by MMmdl.
 41 44  0  0  0  0  0  0  0  0999 V2000
   -1.7421    0.2880    1.1936 C   0  0  0  0  0  0
   -0.5814    0.3707    0.2218 C   0  0  0  0  0  0
   -0.3039   -0.8076   -0.3878 C   0  0  0  0  0  0
   -1.2712   -1.7824    0.1416 C   0  0  0  0  0  0
   -1.4307   -3.1278   -0.1557 C   0  0  0  0  0  0
   -2.4444   -3.8401    0.4942 C   0  0  0  0  0  0
   -3.2764   -3.1995    1.4206 C   0  0  0  0  0  0
   -3.1249   -1.8478    1.7204 C   0  0  0  0  0  0
   -2.1157   -1.1559    1.0679 C   0  0  0  0  0  0
   -4.2475   -3.9473    2.0220 O   0  0  0  0  0  0
    0.7830   -1.0359   -1.3490 C   0  0  0  0  0  0
    0.7883   -0.3973   -2.5959 C   0  0  0  0  0  0
    1.8250   -0.6251   -3.5040 C   0  0  0  0  0  0
    2.8630   -1.4951   -3.1747 C   0  0  0  0  0  0
    2.8655   -2.1385   -1.9384 C   0  0  0  0  0  0
    1.8293   -1.9112   -1.0295 C   0  0  0  0  0  0
    0.1341    1.6439    0.0691 C   0  0  0  0  0  0
   -0.4071    2.7402   -0.6322 C   0  0  0  0  0  0
    0.3300    3.9352   -0.7050 C   0  0  0  0  0  0
    1.5918    4.0364   -0.1188 C   0  0  0  0  0  0
    2.1327    2.9473    0.5557 C   0  0  0  0  0  0
    1.4077    1.7593    0.6505 C   0  0  0  0  0  0
   -1.7658    2.6955   -1.2789 C   0  0  0  0  0  0
   -2.5761    0.9282    0.8939 H   0  0  0  0  0  0
   -1.4231    0.5204    2.2146 H   0  0  0  0  0  0
   -0.7896   -3.6271   -0.8768 H   0  0  0  0  0  0
   -2.5848   -4.8968    0.2754 H   0  0  0  0  0  0
   -3.7681   -1.3436    2.4351 H   0  0  0  0  0  0
   -4.7454   -3.3691    2.6389 H   0  0  0  0  0  0
   -0.0169    0.2814   -2.8717 H   0  0  0  0  0  0
    1.8209   -0.1230   -4.4698 H   0  0  0  0  0  0
    3.6707   -1.6722   -3.8827 H   0  0  0  0  0  0
    3.6755   -2.8182   -1.6797 H   0  0  0  0  0  0
    1.8488   -2.4190   -0.0662 H   0  0  0  0  0  0
   -0.0770    4.8005   -1.2280 H   0  0  0  0  0  0
    2.1520    4.9671   -0.1899 H   0  0  0  0  0  0
    3.1175    3.0220    1.0130 H   0  0  0  0  0  0
    1.8443    0.9190    1.1897 H   0  0  0  0  0  0
   -2.5423    2.8973   -0.5351 H   0  0  0  0  0  0
   -1.9540    1.7246   -1.7474 H   0  0  0  0  0  0
   -1.8475    3.4464   -2.0725 H   0  0  0  0  0  0
  1  2  1  0  0  0
  1  9  1  0  0  0
  1 24  1  0  0  0
  1 25  1  0  0  0
  2  3  2  0  0  0
  2 17  1  0  0  0
  3  4  1  0  0  0
  3 11  1  0  0  0
  4  5  2  0  0  0
  4  9  1  0  0  0
  5  6  1  0  0  0
  5 26  1  0  0  0
  6  7  2  0  0  0
  6 27  1  0  0  0
  7  8  1  0  0  0
  7 10  1  0  0  0
  8  9  2  0  0  0
  8 28  1  0  0  0
 10 29  1  0  0  0
 11 12  2  0  0  0
 11 16  1  0  0  0
 12 13  1  0  0  0
 12 30  1  0  0  0
 13 14  2  0  0  0
 13 31  1  0  0  0
 14 15  1  0  0  0
 14 32  1  0  0  0
 15 16  2  0  0  0
 15 33  1  0  0  0
 16 34  1  0  0  0
 17 18  2  0  0  0
 17 22  1  0  0  0
 18 19  1  0  0  0
 18 23  1  0  0  0
 19 20  2  0  0  0
 19 35  1  0  0  0
 20 21  1  0  0  0
 20 36  1  0  0  0
 21 22  2  0  0  0
 21 37  1  0  0  0
 22 38  1  0  0  0
 23 39  1  0  0  0
 23 40  1  0  0  0
 23 41  1  0  0  0
M  END
>  <Name>
tox-458

>  <substance>
2-(2-Methylphenyl)-3-phenyl-6- hydroxyindene

>  <CASRN>


>  <from_NCI>
0

>  <RBA>
100.000000

>  <method>
RUC

>  <chemical_class>
Triphenylethylene

>  <set>
1

$$$$
tox-459
  Cerius2 12190218273D 1   1.00000                          
 Structure written by MMmdl.
 41 44  0  0  0  0  0  0  0  0999 V2000
   -2.0837    0.3551    0.3443 C   0  0  0  0  0  0
   -0.6880    0.3744   -0.2799 C   0  0  0  0  0  0
   -0.2074   -0.8675   -0.5423 C   0  0  0  0  0  0
   -1.2523   -1.8186   -0.1292 C   0  0  0  0  0  0
   -1.2542   -3.2058   -0.1769 C   0  0  0  0  0  0
   -2.3765   -3.8915    0.2989 C   0  0  0  0  0  0
   -3.4674   -3.1848    0.8170 C   0  0  0  0  0  0
   -3.4698   -1.7932    0.8734 C   0  0  0  0  0  0
   -2.3518   -1.1248    0.3913 C   0  0  0  0  0  0
    1.1130   -1.1812   -1.1069 C   0  0  0  0  0  0
    1.2123   -1.8135   -2.3533 C   0  0  0  0  0  0
    2.4632   -2.1225   -2.8927 C   0  0  0  0  0  0
    3.6241   -1.8051   -2.1896 C   0  0  0  0  0  0
    3.5363   -1.1801   -0.9467 C   0  0  0  0  0  0
    2.2860   -0.8708   -0.4061 C   0  0  0  0  0  0
   -0.0079    1.6615   -0.4979 C   0  0  0  0  0  0
    0.1262    2.5799    0.5522 C   0  0  0  0  0  0
    0.7543    3.8112    0.3458 C   0  0  0  0  0  0
    1.2504    4.1400   -0.9137 C   0  0  0  0  0  0
    1.1175    3.2394   -1.9680 C   0  0  0  0  0  0
    0.4894    2.0083   -1.7619 C   0  0  0  0  0  0
   -4.5323   -3.9081    1.2712 O   0  0  0  0  0  0
   -3.1256    1.0981   -0.4884 C   0  0  0  0  0  0
   -2.0535    0.7457    1.3682 H   0  0  0  0  0  0
   -0.4055   -3.7588   -0.5698 H   0  0  0  0  0  0
   -2.3960   -4.9790    0.2684 H   0  0  0  0  0  0
   -4.3108   -1.2410    1.2818 H   0  0  0  0  0  0
    0.3150   -2.0655   -2.9168 H   0  0  0  0  0  0
    2.5306   -2.6110   -3.8631 H   0  0  0  0  0  0
    4.5988   -2.0458   -2.6105 H   0  0  0  0  0  0
    4.4421   -0.9331   -0.3960 H   0  0  0  0  0  0
    2.2343   -0.3858    0.5675 H   0  0  0  0  0  0
   -0.2455    2.3442    1.5480 H   0  0  0  0  0  0
    0.8567    4.5133    1.1714 H   0  0  0  0  0  0
    1.7395    5.0992   -1.0740 H   0  0  0  0  0  0
    1.5003    3.4948   -2.9544 H   0  0  0  0  0  0
    0.3852    1.3257   -2.6039 H   0  0  0  0  0  0
   -5.2121   -3.2830    1.6025 H   0  0  0  0  0  0
   -4.1255    0.9895   -0.0542 H   0  0  0  0  0  0
   -3.1703    0.7189   -1.5163 H   0  0  0  0  0  0
   -2.9027    2.1694   -0.5354 H   0  0  0  0  0  0
  1  2  1  0  0  0
  1  9  1  0  0  0
  1 23  1  0  0  0
  1 24  1  0  0  0
  2  3  2  0  0  0
  2 16  1  0  0  0
  3  4  1  0  0  0
  3 10  1  0  0  0
  4  5  2  0  0  0
  4  9  1  0  0  0
  5  6  1  0  0  0
  5 25  1  0  0  0
  6  7  2  0  0  0
  6 26  1  0  0  0
  7  8  1  0  0  0
  7 22  1  0  0  0
  8  9  2  0  0  0
  8 27  1  0  0  0
 10 11  2  0  0  0
 10 15  1  0  0  0
 11 12  1  0  0  0
 11 28  1  0  0  0
 12 13  2  0  0  0
 12 29  1  0  0  0
 13 14  1  0  0  0
 13 30  1  0  0  0
 14 15  2  0  0  0
 14 31  1  0  0  0
 15 32  1  0  0  0
 16 17  2  0  0  0
 16 21  1  0  0  0
 17 18  1  0  0  0
 17 33  1  0  0  0
 18 19  2  0  0  0
 18 34  1  0  0  0
 19 20  1  0  0  0
 19 35  1  0  0  0
 20 21  2  0  0  0
 20 36  1  0  0  0
 21 37  1  0  0  0
 22 38  1  0  0  0
 23 39  1  0  0  0
 23 40  1  0  0  0
 23 41  1  0  0  0
M  END
>  <Name>
tox-459

>  <substance>
1-Methyl-6-hydroxy-2,3- diphenylindene

>  <CASRN>


>  <from_NCI>
0

>  <RBA>
12.000000

>  <method>
RUC

>  <chemical_class>
Triphenylethylene

>  <set>
1

$$$$
tox-461
  Cerius2 12190218273D 1   1.00000                          
 Structure written by MMmdl.
 48 51  0  0  0  0  0  0  0  0999 V2000
   -7.8640   -5.1851   10.6624 C   0  0  0  0  0  0
   -6.9935   -4.6703   11.8105 C   0  0  0  0  0  0
   -9.1379   -4.3309   10.4848 C   0  0  0  0  0  0
   -7.3042   -5.3141    9.2512 C   0  0  0  0  0  0
   -7.8074   -4.8532   13.1338 C   0  0  0  0  0  0
   -5.6597   -5.4102   11.9180 C   0  0  0  0  0  0
   -9.9700   -4.4406   11.7641 C   0  0  0  0  0  0
   -9.6854   -5.0451    9.2543 C   0  0  0  0  0  0
   -8.9170   -2.8702   10.0470 C   0  0  0  0  0  0
   -8.5593   -5.6532    8.4289 C   0  0  0  0  0  0
   -6.9625   -4.6196   14.3850 C   0  0  0  0  0  0
   -9.1841   -4.1057   13.0661 C   0  0  0  0  0  0
   -4.8116   -4.7796   13.0183 C   0  0  0  0  0  0
  -10.8717   -5.1027    8.9409 O   0  0  0  0  0  0
   -5.5562   -4.6126   14.3203 C   0  0  0  0  0  0
   -7.5652   -4.5118   15.6500 C   0  0  0  0  0  0
   -4.8033   -4.4144   15.4926 C   0  0  0  0  0  0
   -6.8052   -4.3290   16.8116 C   0  0  0  0  0  0
   -5.4187   -4.2693   16.7366 C   0  0  0  0  0  0
   -4.5618   -4.0893   17.7867 O   0  0  0  0  0  0
   -9.0625   -2.5927   13.2943 C   0  0  0  0  0  0
   -3.1686   -4.0596   17.4790 C   0  0  0  0  0  0
   -8.1671   -6.2099   10.9415 H   0  0  0  0  0  0
   -6.7616   -3.6098   11.6598 H   0  0  0  0  0  0
   -6.5544   -6.1063    9.1636 H   0  0  0  0  0  0
   -6.8472   -4.3792    8.9094 H   0  0  0  0  0  0
   -8.0605   -5.9244   13.1963 H   0  0  0  0  0  0
   -5.1053   -5.3596   10.9744 H   0  0  0  0  0  0
   -5.8316   -6.4723   12.1353 H   0  0  0  0  0  0
  -10.3417   -5.4714   11.8539 H   0  0  0  0  0  0
  -10.8717   -3.8194   11.6928 H   0  0  0  0  0  0
   -9.8559   -2.3073   10.1076 H   0  0  0  0  0  0
   -8.5852   -2.7923    9.0049 H   0  0  0  0  0  0
   -8.1747   -2.3453   10.6478 H   0  0  0  0  0  0
   -8.7100   -6.7348    8.3688 H   0  0  0  0  0  0
   -8.5193   -5.2086    7.4322 H   0  0  0  0  0  0
   -9.8171   -4.4803   13.8820 H   0  0  0  0  0  0
   -4.4650   -3.7905   12.6934 H   0  0  0  0  0  0
   -3.9245   -5.4054   13.1746 H   0  0  0  0  0  0
   -8.6471   -4.5715   15.7582 H   0  0  0  0  0  0
   -3.7153   -4.3821   15.4331 H   0  0  0  0  0  0
   -7.3362   -4.2415   17.7557 H   0  0  0  0  0  0
   -9.9819   -2.0734   13.0048 H   0  0  0  0  0  0
   -8.2277   -2.1484   12.7496 H   0  0  0  0  0  0
   -8.8978   -2.3728   14.3541 H   0  0  0  0  0  0
   -2.6238   -3.9244   18.4181 H   0  0  0  0  0  0
   -2.9282   -3.2126   16.8282 H   0  0  0  0  0  0
   -2.8427   -5.0069   17.0368 H   0  0  0  0  0  0
  1  2  1  0  0  0
  1  3  1  0  0  0
  1  4  1  0  0  0
  1 23  1  0  0  0
  2  5  1  0  0  0
  2  6  1  0  0  0
  2 24  1  0  0  0
  3  7  1  0  0  0
  3  8  1  0  0  0
  3  9  1  0  0  0
  4 10  1  0  0  0
  4 25  1  0  0  0
  4 26  1  0  0  0
  5 11  1  0  0  0
  5 12  1  0  0  0
  5 27  1  0  0  0
  6 13  1  0  0  0
  6 28  1  0  0  0
  6 29  1  0  0  0
  7 12  1  0  0  0
  7 30  1  0  0  0
  7 31  1  0  0  0
  8 10  1  0  0  0
  8 14  2  0  0  0
  9 32  1  0  0  0
  9 33  1  0  0  0
  9 34  1  0  0  0
 10 35  1  0  0  0
 10 36  1  0  0  0
 11 15  2  0  0  0
 11 16  1  0  0  0
 12 21  1  0  0  0
 12 37  1  0  0  0
 13 15  1  0  0  0
 13 38  1  0  0  0
 13 39  1  0  0  0
 15 17  1  0  0  0
 16 18  2  0  0  0
 16 40  1  0  0  0
 17 19  2  0  0  0
 17 41  1  0  0  0
 18 19  1  0  0  0
 18 42  1  0  0  0
 19 20  1  0  0  0
 20 22  1  0  0  0
 21 43  1  0  0  0
 21 44  1  0  0  0
 21 45  1  0  0  0
 22 46  1  0  0  0
 22 47  1  0  0  0
 22 48  1  0  0  0
M  END
>  <Name>
tox-461

>  <substance>
11b-Methylestrone 3-methyl ether

>  <CASRN>
13667-04-4

>  <from_NCI>
0

>  <RBA>
0.000000

>  <method>
RUC

>  <chemical_class>
Steroid, nonphenolic

>  <set>
2

$$$$
tox-462
  Cerius2 12190218273D 1   1.00000                          
 Structure written by MMmdl.
 45 48  0  0  0  0  0  0  0  0999 V2000
   -7.8662   -5.1856   10.6642 C   0  0  0  0  0  0
   -6.9916   -4.6716   11.8096 C   0  0  0  0  0  0
   -9.1393   -4.3298   10.4898 C   0  0  0  0  0  0
   -7.3107   -5.3161    9.2513 C   0  0  0  0  0  0
   -7.8017   -4.8524   13.1355 C   0  0  0  0  0  0
   -5.6588   -5.4139   11.9136 C   0  0  0  0  0  0
   -9.9679   -4.4382   11.7715 C   0  0  0  0  0  0
   -9.6915   -5.0437    9.2612 C   0  0  0  0  0  0
   -8.9178   -2.8695   10.0510 C   0  0  0  0  0  0
   -8.5686   -5.6536    8.4327 C   0  0  0  0  0  0
   -6.9532   -4.6186   14.3850 C   0  0  0  0  0  0
   -9.1780   -4.1035   13.0710 C   0  0  0  0  0  0
   -4.8054   -4.7829   13.0093 C   0  0  0  0  0  0
  -10.8786   -5.0996    8.9512 O   0  0  0  0  0  0
   -5.5440   -4.6134   14.3145 C   0  0  0  0  0  0
   -7.5565   -4.5085   15.6520 C   0  0  0  0  0  0
   -4.7850   -4.4153   15.4817 C   0  0  0  0  0  0
   -6.7938   -4.3255   16.8086 C   0  0  0  0  0  0
   -5.4122   -4.2716   16.7121 C   0  0  0  0  0  0
   -4.6310   -4.0893   17.8144 O   0  0  0  0  0  0
   -9.0540   -2.5904   13.2978 C   0  0  0  0  0  0
   -8.1700   -6.2099   10.9447 H   0  0  0  0  0  0
   -6.7584   -3.6116   11.6577 H   0  0  0  0  0  0
   -6.5624   -6.1094    9.1621 H   0  0  0  0  0  0
   -6.8531   -4.3820    8.9079 H   0  0  0  0  0  0
   -8.0559   -5.9234   13.1998 H   0  0  0  0  0  0
   -5.1077   -5.3660   10.9678 H   0  0  0  0  0  0
   -5.8319   -6.4752   12.1334 H   0  0  0  0  0  0
  -10.3402   -5.4685   11.8628 H   0  0  0  0  0  0
  -10.8693   -3.8164   11.7025 H   0  0  0  0  0  0
   -9.8556   -2.3052   10.1148 H   0  0  0  0  0  0
   -8.5896   -2.7923    9.0076 H   0  0  0  0  0  0
   -8.1725   -2.3457   10.6488 H   0  0  0  0  0  0
   -8.7209   -6.7350    8.3733 H   0  0  0  0  0  0
   -8.5308   -5.2091    7.4359 H   0  0  0  0  0  0
   -9.8093   -4.4768   13.8888 H   0  0  0  0  0  0
   -4.4590   -3.7945   12.6818 H   0  0  0  0  0  0
   -3.9183   -5.4093   13.1625 H   0  0  0  0  0  0
   -8.6380   -4.5663   15.7619 H   0  0  0  0  0  0
   -3.6979   -4.3837   15.4278 H   0  0  0  0  0  0
   -7.2966   -4.2320   17.7682 H   0  0  0  0  0  0
   -3.6921   -4.0815   17.5293 H   0  0  0  0  0  0
   -9.9735   -2.0702   13.0103 H   0  0  0  0  0  0
   -8.2201   -2.1474   12.7504 H   0  0  0  0  0  0
   -8.8862   -2.3698   14.3569 H   0  0  0  0  0  0
  1  2  1  0  0  0
  1  3  1  0  0  0
  1  4  1  0  0  0
  1 22  1  0  0  0
  2  5  1  0  0  0
  2  6  1  0  0  0
  2 23  1  0  0  0
  3  7  1  0  0  0
  3  8  1  0  0  0
  3  9  1  0  0  0
  4 10  1  0  0  0
  4 24  1  0  0  0
  4 25  1  0  0  0
  5 11  1  0  0  0
  5 12  1  0  0  0
  5 26  1  0  0  0
  6 13  1  0  0  0
  6 27  1  0  0  0
  6 28  1  0  0  0
  7 12  1  0  0  0
  7 29  1  0  0  0
  7 30  1  0  0  0
  8 10  1  0  0  0
  8 14  2  0  0  0
  9 31  1  0  0  0
  9 32  1  0  0  0
  9 33  1  0  0  0
 10 34  1  0  0  0
 10 35  1  0  0  0
 11 15  2  0  0  0
 11 16  1  0  0  0
 12 21  1  0  0  0
 12 36  1  0  0  0
 13 15  1  0  0  0
 13 37  1  0  0  0
 13 38  1  0  0  0
 15 17  1  0  0  0
 16 18  2  0  0  0
 16 39  1  0  0  0
 17 19  2  0  0  0
 17 40  1  0  0  0
 18 19  1  0  0  0
 18 41  1  0  0  0
 19 20  1  0  0  0
 20 42  1  0  0  0
 21 43  1  0  0  0
 21 44  1  0  0  0
 21 45  1  0  0  0
M  END
>  <Name>
tox-462

>  <substance>
11b-Methylestrone

>  <CASRN>
13667-06-6

>  <from_NCI>
0

>  <RBA>
47.000000

>  <method>
RUC

>  <chemical_class>
Steroid, phenolic

>  <set>
0

$$$$
tox-463
  Cerius2 12190218273D 1   1.00000                          
 Structure written by MMmdl.
 50 53  0  0  0  0  0  0  0  0999 V2000
   -3.5730   -0.9963   -0.8553 C   0  0  0  0  0  0
   -4.8756   -1.3897   -0.9882 O   0  0  0  0  0  0
   -3.3960    0.2765   -0.3201 C   0  0  0  0  0  0
   -2.1132    0.7953   -0.1242 C   0  0  0  0  0  0
   -2.4496   -1.7391   -1.2119 C   0  0  0  0  0  0
   -1.1503   -1.2207   -1.0320 C   0  0  0  0  0  0
    0.0177   -2.0770   -1.4609 C   0  0  0  0  0  0
    1.3102   -1.2864   -1.6366 C   0  0  0  0  0  0
    1.5607   -0.4307   -0.3941 C   0  0  0  0  0  0
    2.8965    0.3130   -0.4555 C   0  0  0  0  0  0
    4.1880   -0.4479   -0.7335 C   0  0  0  0  0  0
    5.2890    0.5369   -0.2928 C   0  0  0  0  0  0
    4.5703    1.6870    0.4456 C   0  0  0  0  0  0
    5.3459    2.1465    1.5421 O   0  0  0  0  0  0
    3.2061    1.0772    0.8476 C   0  0  0  0  0  0
    3.3971    0.1851    2.0997 C   0  0  0  0  0  0
    2.0878    2.1079    1.0852 C   0  0  0  0  0  0
    0.6435    1.5300    1.0172 C   0  0  0  0  0  0
    0.4280    0.6359   -0.2514 C   0  0  0  0  0  0
   -0.9690    0.0455   -0.4403 C   0  0  0  0  0  0
   -5.1021   -2.6947   -1.5187 C   0  0  0  0  0  0
    0.2219    0.8443    2.3238 C   0  0  0  0  0  0
   -4.2611    0.8807   -0.0514 H   0  0  0  0  0  0
   -2.0290    1.8024    0.2801 H   0  0  0  0  0  0
   -2.5488   -2.7315   -1.6463 H   0  0  0  0  0  0
   -0.2154   -2.5755   -2.4097 H   0  0  0  0  0  0
    0.1643   -2.8583   -0.7045 H   0  0  0  0  0  0
    1.2455   -0.6500   -2.5286 H   0  0  0  0  0  0
    2.1337   -1.9900   -1.8020 H   0  0  0  0  0  0
    1.5471   -1.1061    0.4689 H   0  0  0  0  0  0
    2.8062    1.0459   -1.2755 H   0  0  0  0  0  0
    4.2931   -0.7133   -1.7903 H   0  0  0  0  0  0
    4.2432   -1.3732   -0.1494 H   0  0  0  0  0  0
    5.8256    0.9316   -1.1630 H   0  0  0  0  0  0
    6.0314    0.0364    0.3387 H   0  0  0  0  0  0
    4.4378    2.5282   -0.2466 H   0  0  0  0  0  0
    4.8185    2.8501    1.9752 H   0  0  0  0  0  0
    3.4749    0.8002    3.0037 H   0  0  0  0  0  0
    4.3118   -0.4151    2.0499 H   0  0  0  0  0  0
    2.5838   -0.5225    2.2534 H   0  0  0  0  0  0
    2.1585    2.8823    0.3083 H   0  0  0  0  0  0
    2.2433    2.6345    2.0350 H   0  0  0  0  0  0
   -0.0049    2.4123    0.9256 H   0  0  0  0  0  0
    0.5339    1.3178   -1.1113 H   0  0  0  0  0  0
   -6.1835   -2.8586   -1.5475 H   0  0  0  0  0  0
   -4.6647   -3.4635   -0.8732 H   0  0  0  0  0  0
   -4.7249   -2.7730   -2.5436 H   0  0  0  0  0  0
   -0.8675    0.8620    2.4338 H   0  0  0  0  0  0
    0.6341    1.3621    3.1959 H   0  0  0  0  0  0
    0.5209   -0.2045    2.3681 H   0  0  0  0  0  0
  1  2  1  0  0  0
  1  3  2  0  0  0
  1  5  1  0  0  0
  2 21  1  0  0  0
  3  4  1  0  0  0
  3 23  1  0  0  0
  4 20  2  0  0  0
  4 24  1  0  0  0
  5  6  2  0  0  0
  5 25  1  0  0  0
  6  7  1  0  0  0
  6 20  1  0  0  0
  7  8  1  0  0  0
  7 26  1  0  0  0
  7 27  1  0  0  0
  8  9  1  0  0  0
  8 28  1  0  0  0
  8 29  1  0  0  0
  9 10  1  0  0  0
  9 19  1  0  0  0
  9 30  1  0  0  0
 10 11  1  0  0  0
 10 15  1  0  0  0
 10 31  1  0  0  0
 11 12  1  0  0  0
 11 32  1  0  0  0
 11 33  1  0  0  0
 12 13  1  0  0  0
 12 34  1  0  0  0
 12 35  1  0  0  0
 13 14  1  0  0  0
 13 15  1  0  0  0
 13 36  1  0  0  0
 14 37  1  0  0  0
 15 16  1  0  0  0
 15 17  1  0  0  0
 16 38  1  0  0  0
 16 39  1  0  0  0
 16 40  1  0  0  0
 17 18  1  0  0  0
 17 41  1  0  0  0
 17 42  1  0  0  0
 18 19  1  0  0  0
 18 22  1  0  0  0
 18 43  1  0  0  0
 19 20  1  0  0  0
 19 44  1  0  0  0
 21 45  1  0  0  0
 21 46  1  0  0  0
 21 47  1  0  0  0
 22 48  1  0  0  0
 22 49  1  0  0  0
 22 50  1  0  0  0
M  END
>  <Name>
tox-463

>  <substance>
11b-Methylestradiol-17b 3-methyl ether

>  <CASRN>
18046-75-8

>  <from_NCI>
0

>  <RBA>
5.100000

>  <method>
RUC

>  <chemical_class>
Steroid, nonphenolic

>  <set>
1

$$$$
tox-464
  Cerius2 12190218273D 1   1.00000                          
 Structure written by MMmdl.
 47 50  0  0  0  0  0  0  0  0999 V2000
    0.7499   -0.1600   -0.3750 C   0  0  0  0  0  0
   -0.5881    0.6390   -0.2722 C   0  0  0  0  0  0
    1.8961    0.8537   -0.4472 C   0  0  0  0  0  0
    0.7071   -1.0807   -1.5971 C   0  0  0  0  0  0
   -1.8202   -0.2437   -0.4589 C   0  0  0  0  0  0
   -0.5891    1.5918    0.9700 C   0  0  0  0  0  0
    2.0289    1.7223    0.8337 C   0  0  0  0  0  0
    3.3212    0.3775   -0.7037 C   0  0  0  0  0  0
   -0.3925   -2.1236   -1.4178 C   0  0  0  0  0  0
   -1.7214   -1.5246   -1.0223 C   0  0  0  0  0  0
   -3.1045    0.2337   -0.1764 C   0  0  0  0  0  0
    0.6915    2.4763    1.0276 C   0  0  0  0  0  0
   -0.8700    0.8701    2.2950 C   0  0  0  0  0  0
    3.2385    2.6305    0.3716 C   0  0  0  0  0  0
    4.1963    1.5819   -0.2829 C   0  0  0  0  0  0
   -2.8869   -2.3091   -1.2051 C   0  0  0  0  0  0
   -4.2446   -0.5643   -0.3822 C   0  0  0  0  0  0
    3.8627    3.2559    1.3556 O   0  0  0  0  0  0
   -4.1873   -1.8697   -0.8945 C   0  0  0  0  0  0
   -5.2208   -2.5892   -1.0712 O   0  0  0  0  0  0
    2.3702    0.8837    2.1027 C   0  0  0  0  0  0
    0.8687   -0.8031    0.5038 H   0  0  0  0  0  0
   -0.6192    1.3049   -1.1504 H   0  0  0  0  0  0
    1.6556    1.5203   -1.2929 H   0  0  0  0  0  0
    1.6635   -1.5977   -1.7334 H   0  0  0  0  0  0
    0.5252   -0.4940   -2.5068 H   0  0  0  0  0  0
   -1.4140    2.3072    0.8464 H   0  0  0  0  0  0
    3.4860    0.1197   -1.7548 H   0  0  0  0  0  0
    3.5661   -0.5041   -0.1011 H   0  0  0  0  0  0
   -0.0963   -2.8400   -0.6414 H   0  0  0  0  0  0
   -0.5000   -2.6795   -2.3571 H   0  0  0  0  0  0
   -3.2554    1.2407    0.2085 H   0  0  0  0  0  0
    0.7113    3.0519    1.9614 H   0  0  0  0  0  0
    0.5982    3.2236    0.2269 H   0  0  0  0  0  0
   -0.5862    1.4879    3.1531 H   0  0  0  0  0  0
   -0.3580   -0.0906    2.3723 H   0  0  0  0  0  0
   -1.9400    0.6605    2.3985 H   0  0  0  0  0  0
    2.8594    3.2381   -0.4664 H   0  0  0  0  0  0
    4.6908    2.0203   -1.1590 H   0  0  0  0  0  0
    4.9939    1.2330    0.3868 H   0  0  0  0  0  0
   -2.7597   -3.3140   -1.6215 H   0  0  0  0  0  0
   -5.2139   -0.1265   -0.1262 H   0  0  0  0  0  0
    2.2930    1.5017    3.0048 H   0  0  0  0  0  0
    3.3893    0.4838    2.0768 H   0  0  0  0  0  0
    1.7178    0.0239    2.2433 H   0  0  0  0  0  0
    4.4975    3.7228    1.0370 H   0  0  0  0  0  0
   -5.9115   -2.1577   -0.8277 H   0  0  0  0  0  0
  1  2  1  0  0  0
  1  3  1  0  0  0
  1  4  1  0  0  0
  1 22  1  0  0  0
  2  5  1  0  0  0
  2  6  1  0  0  0
  2 23  1  0  0  0
  3  7  1  0  0  0
  3  8  1  0  0  0
  3 24  1  0  0  0
  4  9  1  0  0  0
  4 25  1  0  0  0
  4 26  1  0  0  0
  5 10  2  0  0  0
  5 11  1  0  0  0
  6 12  1  0  0  0
  6 13  1  0  0  0
  6 27  1  0  0  0
  7 12  1  0  0  0
  7 14  1  0  0  0
  7 21  1  0  0  0
  8 15  1  0  0  0
  8 28  1  0  0  0
  8 29  1  0  0  0
  9 10  1  0  0  0
  9 30  1  0  0  0
  9 31  1  0  0  0
 10 16  1  0  0  0
 11 17  2  0  0  0
 11 32  1  0  0  0
 12 33  1  0  0  0
 12 34  1  0  0  0
 13 35  1  0  0  0
 13 36  1  0  0  0
 13 37  1  0  0  0
 14 15  1  0  0  0
 14 18  1  0  0  0
 14 38  1  0  0  0
 15 39  1  0  0  0
 15 40  1  0  0  0
 16 19  2  0  0  0
 16 41  1  0  0  0
 17 19  1  0  0  0
 17 42  1  0  0  0
 18 46  1  0  0  0
 19 20  1  0  0  0
 20 47  1  0  0  0
 21 43  1  0  0  0
 21 44  1  0  0  0
 21 45  1  0  0  0
M  END
>  <Name>
tox-464

>  <substance>
11b-Methylestradiol-17b

>  <CASRN>
23637-93-6

>  <from_NCI>
1

>  <RBA>
112.000000

>  <method>
MCF-7 cytosol,RUC

>  <chemical_class>
Steroid, phenolic

>  <set>
0

$$$$
tox-465
  Cerius2 12190218273D 1   1.00000                          
 Structure written by MMmdl.
 46 49  0  0  0  0  0  0  0  0999 V2000
    2.4103    1.3337   -0.5961 C   0  0  0  0  0  0
    1.5171    0.1288   -0.4339 C   0  0  0  0  0  0
    2.4519    2.3210    0.5470 C   0  0  0  0  0  0
    3.1165    1.7305   -1.6639 C   0  0  0  0  0  0
    0.0615    0.6289   -0.1883 C   0  0  0  0  0  0
    1.5398   -0.8515   -1.6106 C   0  0  0  0  0  0
    1.0255    2.7315    0.9391 C   0  0  0  0  0  0
    3.1962    3.4662   -0.1484 C   0  0  0  0  0  0
    3.3141    1.8381    1.7155 C   0  0  0  0  0  0
    3.7466    3.0743   -1.5023 C   0  0  0  0  0  0
   -0.9707   -0.4989   -0.2172 C   0  0  0  0  0  0
    0.0056    1.5684    1.0626 C   0  0  0  0  0  0
    0.7288   -2.0932   -1.2561 C   0  0  0  0  0  0
    3.3632    4.5834    0.3460 O   0  0  0  0  0  0
   -0.6507   -1.7654   -0.7410 C   0  0  0  0  0  0
   -2.2958   -0.2694    0.1919 C   0  0  0  0  0  0
   -1.6261   -2.7793   -0.7649 C   0  0  0  0  0  0
   -3.2619   -1.2820    0.1500 C   0  0  0  0  0  0
   -2.9283   -2.5465   -0.3207 C   0  0  0  0  0  0
   -3.7689   -3.6211   -0.4090 O   0  0  0  0  0  0
    0.1405    0.8228    2.3963 C   0  0  0  0  0  0
   -5.1086   -3.4254    0.0414 C   0  0  0  0  0  0
    1.8706   -0.4275    0.4441 H   0  0  0  0  0  0
    3.1909    1.1863   -2.5975 H   0  0  0  0  0  0
   -0.2085    1.2575   -1.0531 H   0  0  0  0  0  0
    2.5665   -1.1553   -1.8479 H   0  0  0  0  0  0
    1.1245   -0.3798   -2.5111 H   0  0  0  0  0  0
    0.6353    3.4217    0.1761 H   0  0  0  0  0  0
    1.0417    3.3177    1.8671 H   0  0  0  0  0  0
    3.2914    2.5603    2.5395 H   0  0  0  0  0  0
    4.3649    1.7298    1.4186 H   0  0  0  0  0  0
    2.9952    0.8702    2.1072 H   0  0  0  0  0  0
    3.3999    3.7721   -2.2672 H   0  0  0  0  0  0
    4.8359    3.0081   -1.4713 H   0  0  0  0  0  0
   -0.9786    2.0543    1.0892 H   0  0  0  0  0  0
    1.2548   -2.6713   -0.4861 H   0  0  0  0  0  0
    0.6526   -2.7250   -2.1493 H   0  0  0  0  0  0
   -2.6065    0.7103    0.5512 H   0  0  0  0  0  0
   -1.3655   -3.7667   -1.1465 H   0  0  0  0  0  0
   -4.2647   -1.0395    0.4915 H   0  0  0  0  0  0
    0.2318    1.5282    3.2291 H   0  0  0  0  0  0
    1.0008    0.1525    2.4243 H   0  0  0  0  0  0
   -0.7464    0.2118    2.5926 H   0  0  0  0  0  0
   -5.6433   -4.3717   -0.0849 H   0  0  0  0  0  0
   -5.6199   -2.6694   -0.5634 H   0  0  0  0  0  0
   -5.1327   -3.1674    1.1053 H   0  0  0  0  0  0
  1  2  1  0  0  0
  1  3  1  0  0  0
  1  4  2  0  0  0
  2  5  1  0  0  0
  2  6  1  0  0  0
  2 23  1  0  0  0
  3  7  1  0  0  0
  3  8  1  0  0  0
  3  9  1  0  0  0
  4 10  1  0  0  0
  4 24  1  0  0  0
  5 11  1  0  0  0
  5 12  1  0  0  0
  5 25  1  0  0  0
  6 13  1  0  0  0
  6 26  1  0  0  0
  6 27  1  0  0  0
  7 12  1  0  0  0
  7 28  1  0  0  0
  7 29  1  0  0  0
  8 10  1  0  0  0
  8 14  2  0  0  0
  9 30  1  0  0  0
  9 31  1  0  0  0
  9 32  1  0  0  0
 10 33  1  0  0  0
 10 34  1  0  0  0
 11 15  2  0  0  0
 11 16  1  0  0  0
 12 21  1  0  0  0
 12 35  1  0  0  0
 13 15  1  0  0  0
 13 36  1  0  0  0
 13 37  1  0  0  0
 15 17  1  0  0  0
 16 18  2  0  0  0
 16 38  1  0  0  0
 17 19  2  0  0  0
 17 39  1  0  0  0
 18 19  1  0  0  0
 18 40  1  0  0  0
 19 20  1  0  0  0
 20 22  1  0  0  0
 21 41  1  0  0  0
 21 42  1  0  0  0
 21 43  1  0  0  0
 22 44  1  0  0  0
 22 45  1  0  0  0
 22 46  1  0  0  0
M  END
>  <Name>
tox-465

>  <substance>
11b-Methyl-14-dehydroestrone 3-methyl ether

>  <CASRN>
88598-69-0

>  <from_NCI>
0

>  <RBA>
0.000000

>  <method>
RUC

>  <chemical_class>
Steroid, nonphenolic

>  <set>
0

$$$$
tox-466
  Cerius2 12190218273D 1   1.00000                          
 Structure written by MMmdl.
 48 51  0  0  0  0  0  0  0  0999 V2000
   -3.3757   -1.7180   -0.9125 C   0  0  0  0  0  0
   -4.5615   -2.3885   -1.0279 O   0  0  0  0  0  0
   -3.4738   -0.4422   -0.3645 C   0  0  0  0  0  0
   -2.3337    0.3461   -0.1848 C   0  0  0  0  0  0
   -2.1229   -2.1912   -1.2964 C   0  0  0  0  0  0
   -0.9673   -1.3995   -1.1329 C   0  0  0  0  0  0
    0.3529   -1.9723   -1.5876 C   0  0  0  0  0  0
    1.4250   -0.9084   -1.7951 C   0  0  0  0  0  0
    1.5148   -0.0173   -0.5521 C   0  0  0  0  0  0
    2.6579    0.9660   -0.5679 C   0  0  0  0  0  0
    3.6122    1.1614   -1.4895 C   0  0  0  0  0  0
    4.5360    2.2747   -1.1140 C   0  0  0  0  0  0
    3.7639    3.0022   -0.0043 C   0  0  0  0  0  0
    4.6695    3.5676    0.9421 O   0  0  0  0  0  0
    2.8053    1.9232    0.5990 C   0  0  0  0  0  0
    3.4549    1.2143    1.8017 C   0  0  0  0  0  0
    1.4415    2.5508    0.9665 C   0  0  0  0  0  0
    0.2224    1.5937    0.9634 C   0  0  0  0  0  0
    0.1778    0.7546   -0.3552 C   0  0  0  0  0  0
   -1.0584   -0.1287   -0.5320 C   0  0  0  0  0  0
   -4.5056   -3.7028   -1.5803 C   0  0  0  0  0  0
    0.1305    0.7509    2.2406 C   0  0  0  0  0  0
   -4.4455   -0.0466   -0.0732 H   0  0  0  0  0  0
   -2.4674    1.3432    0.2303 H   0  0  0  0  0  0
   -2.0086   -3.1781   -1.7395 H   0  0  0  0  0  0
    0.2179   -2.5167   -2.5301 H   0  0  0  0  0  0
    0.6906   -2.6951   -0.8343 H   0  0  0  0  0  0
    1.1879   -0.3049   -2.6814 H   0  0  0  0  0  0
    2.3808   -1.4094   -1.9904 H   0  0  0  0  0  0
    1.6780   -0.6885    0.3013 H   0  0  0  0  0  0
    3.7298    0.5985   -2.4065 H   0  0  0  0  0  0
    4.7148    2.9460   -1.9599 H   0  0  0  0  0  0
    5.5020    1.8888   -0.7720 H   0  0  0  0  0  0
    3.2041    3.8304   -0.4579 H   0  0  0  0  0  0
    4.1151    4.0372    1.6000 H   0  0  0  0  0  0
    3.4998    1.8766    2.6732 H   0  0  0  0  0  0
    4.4808    0.9004    1.5735 H   0  0  0  0  0  0
    2.9177    0.3120    2.1003 H   0  0  0  0  0  0
    1.2060    3.3366    0.2343 H   0  0  0  0  0  0
    1.5121    3.0703    1.9307 H   0  0  0  0  0  0
   -0.6533    2.2558    0.9833 H   0  0  0  0  0  0
    0.1052    1.4819   -1.1808 H   0  0  0  0  0  0
   -5.5250   -4.1002   -1.5962 H   0  0  0  0  0  0
   -3.8980   -4.3665   -0.9564 H   0  0  0  0  0  0
   -4.1397   -3.6802   -2.6120 H   0  0  0  0  0  0
   -0.8701    0.3199    2.3490 H   0  0  0  0  0  0
    0.3100    1.3677    3.1275 H   0  0  0  0  0  0
    0.8361   -0.0806    2.2574 H   0  0  0  0  0  0
  1  2  1  0  0  0
  1  3  2  0  0  0
  1  5  1  0  0  0
  2 21  1  0  0  0
  3  4  1  0  0  0
  3 23  1  0  0  0
  4 20  2  0  0  0
  4 24  1  0  0  0
  5  6  2  0  0  0
  5 25  1  0  0  0
  6  7  1  0  0  0
  6 20  1  0  0  0
  7  8  1  0  0  0
  7 26  1  0  0  0
  7 27  1  0  0  0
  8  9  1  0  0  0
  8 28  1  0  0  0
  8 29  1  0  0  0
  9 10  1  0  0  0
  9 19  1  0  0  0
  9 30  1  0  0  0
 10 11  2  0  0  0
 10 15  1  0  0  0
 11 12  1  0  0  0
 11 31  1  0  0  0
 12 13  1  0  0  0
 12 32  1  0  0  0
 12 33  1  0  0  0
 13 14  1  0  0  0
 13 15  1  0  0  0
 13 34  1  0  0  0
 14 35  1  0  0  0
 15 16  1  0  0  0
 15 17  1  0  0  0
 16 36  1  0  0  0
 16 37  1  0  0  0
 16 38  1  0  0  0
 17 18  1  0  0  0
 17 39  1  0  0  0
 17 40  1  0  0  0
 18 19  1  0  0  0
 18 22  1  0  0  0
 18 41  1  0  0  0
 19 20  1  0  0  0
 19 42  1  0  0  0
 21 43  1  0  0  0
 21 44  1  0  0  0
 21 45  1  0  0  0
 22 46  1  0  0  0
 22 47  1  0  0  0
 22 48  1  0  0  0
M  END
>  <Name>
tox-466

>  <substance>
11b-Methyl-14-dehydroestradiol-17b 3-methyl ether

>  <CASRN>
88598-65-6

>  <from_NCI>
0

>  <RBA>
1.200000

>  <method>
RUC

>  <chemical_class>
Steroid, nonphenolic

>  <set>
1

$$$$
tox-467
  Cerius2 12190218273D 1   1.00000                          
 Structure written by MMmdl.
 52 55  0  0  0  0  0  0  0  0999 V2000
   -4.3691   -1.5974   -0.7344 C   0  0  0  0  0  0
   -5.6168   -2.1437   -0.7907 O   0  0  0  0  0  0
   -4.2550   -0.2193   -0.8167 C   0  0  0  0  0  0
   -2.9922    0.3754   -0.7573 C   0  0  0  0  0  0
   -3.2370   -2.3918   -0.6057 C   0  0  0  0  0  0
   -1.9594   -1.8032   -0.5565 C   0  0  0  0  0  0
   -0.7678   -2.7190   -0.4115 C   0  0  0  0  0  0
    0.5591   -2.0481   -0.7480 C   0  0  0  0  0  0
    0.6572   -0.7004   -0.0285 C   0  0  0  0  0  0
    2.0222   -0.0349   -0.2371 C   0  0  0  0  0  0
    3.2883   -0.8084    0.1227 C   0  0  0  0  0  0
    4.3679    0.2763    0.3122 C   0  0  0  0  0  0
    3.6634    1.6517    0.1633 C   0  0  0  0  0  0
    4.2518    2.5225    1.1421 O   0  0  0  0  0  0
    2.1728    1.2934    0.5368 C   0  0  0  0  0  0
    2.0576    1.1261    2.0823 C   0  0  0  0  0  0
    1.0664    2.2591    0.0460 C   0  0  0  0  0  0
   -0.3676    1.6640    0.1139 C   0  0  0  0  0  0
   -0.4432    0.2610   -0.5764 C   0  0  0  0  0  0
   -1.8265   -0.3976   -0.5990 C   0  0  0  0  0  0
    3.8227    2.3984   -1.1481 C   0  0  0  0  0  0
    4.2092    2.1121   -2.4011 C   0  0  0  0  0  0
    4.7780    0.3732   -3.2733 I   0  0  0  0  0  0
   -0.8289    1.5523    1.4697 O   0  0  0  0  0  0
   -1.3294    2.7785    1.9967 C   0  0  0  0  0  0
   -5.5314   -3.1186   -0.7219 H   0  0  0  0  0  0
   -5.1409    0.4014   -0.9306 H   0  0  0  0  0  0
   -2.9431    1.4587   -0.8431 H   0  0  0  0  0  0
   -3.3314   -3.4749   -0.5476 H   0  0  0  0  0  0
   -0.8903   -3.5941   -1.0613 H   0  0  0  0  0  0
   -0.7406   -3.0789    0.6248 H   0  0  0  0  0  0
    0.6424   -1.9036   -1.8330 H   0  0  0  0  0  0
    1.3755   -2.7155   -0.4504 H   0  0  0  0  0  0
    0.4886   -0.8871    1.0388 H   0  0  0  0  0  0
    2.0901    0.1791   -1.3140 H   0  0  0  0  0  0
    3.5682   -1.5191   -0.6609 H   0  0  0  0  0  0
    3.1587   -1.3787    1.0497 H   0  0  0  0  0  0
    5.2140    0.1448   -0.3639 H   0  0  0  0  0  0
    4.8052    0.1683    1.3139 H   0  0  0  0  0  0
    3.6558    3.2931    1.2333 H   0  0  0  0  0  0
    2.0601    2.1052    2.5752 H   0  0  0  0  0  0
    2.8858    0.5533    2.5105 H   0  0  0  0  0  0
    1.1481    0.6120    2.3955 H   0  0  0  0  0  0
    1.2397    2.5197   -1.0050 H   0  0  0  0  0  0
    1.1262    3.1957    0.6107 H   0  0  0  0  0  0
   -1.0274    2.3556   -0.4245 H   0  0  0  0  0  0
   -0.2137    0.4366   -1.6397 H   0  0  0  0  0  0
    3.5438    3.4511   -1.0326 H   0  0  0  0  0  0
    4.2018    2.9430   -3.1067 H   0  0  0  0  0  0
   -1.6791    2.5910    3.0155 H   0  0  0  0  0  0
   -2.1751    3.1344    1.4006 H   0  0  0  0  0  0
   -0.5463    3.5394    2.0366 H   0  0  0  0  0  0
  1  2  1  0  0  0
  1  3  2  0  0  0
  1  5  1  0  0  0
  2 26  1  0  0  0
  3  4  1  0  0  0
  3 27  1  0  0  0
  4 20  2  0  0  0
  4 28  1  0  0  0
  5  6  2  0  0  0
  5 29  1  0  0  0
  6  7  1  0  0  0
  6 20  1  0  0  0
  7  8  1  0  0  0
  7 30  1  0  0  0
  7 31  1  0  0  0
  8  9  1  0  0  0
  8 32  1  0  0  0
  8 33  1  0  0  0
  9 10  1  0  0  0
  9 19  1  0  0  0
  9 34  1  0  0  0
 10 11  1  0  0  0
 10 15  1  0  0  0
 10 35  1  0  0  0
 11 12  1  0  0  0
 11 36  1  0  0  0
 11 37  1  0  0  0
 12 13  1  0  0  0
 12 38  1  0  0  0
 12 39  1  0  0  0
 13 14  1  0  0  0
 13 15  1  0  0  0
 13 21  1  0  0  0
 14 40  1  0  0  0
 15 16  1  0  0  0
 15 17  1  0  0  0
 16 41  1  0  0  0
 16 42  1  0  0  0
 16 43  1  0  0  0
 17 18  1  0  0  0
 17 44  1  0  0  0
 17 45  1  0  0  0
 18 19  1  0  0  0
 18 24  1  0  0  0
 18 46  1  0  0  0
 19 20  1  0  0  0
 19 47  1  0  0  0
 21 22  2  0  0  0
 21 48  1  0  0  0
 22 23  1  0  0  0
 22 49  1  0  0  0
 24 25  1  0  0  0
 25 50  1  0  0  0
 25 51  1  0  0  0
 25 52  1  0  0  0
M  END
>  <Name>
tox-467

>  <substance>
(Z )-11b-Methoxy-17a- iodovinylestradiol

>  <CASRN>
177159-11-4

>  <from_NCI>
0

>  <RBA>
36.000000

>  <method>
MCF-7 cytosol,RUC

>  <chemical_class>
Steroid, phenolic

>  <set>
0

$$$$
tox-468
  Cerius2 12190218273D 1   1.00000                          
 Structure written by MMmdl.
 52 55  0  0  0  0  0  0  0  0999 V2000
   -4.2991   -0.0881    2.9312 C   0  0  0  0  0  0
   -4.2476   -1.3436    3.5573 C   0  0  0  0  0  0
   -3.0763   -2.0755    3.2855 C   0  0  0  0  0  0
   -3.2633    0.4121    2.1221 C   0  0  0  0  0  0
   -2.0893   -0.3193    1.9094 C   0  0  0  0  0  0
   -2.0238   -1.6058    2.4628 C   0  0  0  0  0  0
   -0.8401   -2.5125    2.2259 C   0  0  0  0  0  0
   -0.0620   -2.1442    0.9655 C   0  0  0  0  0  0
   -0.9830    0.2191    1.0086 C   0  0  0  0  0  0
    0.3071   -0.6597    1.0044 C   0  0  0  0  0  0
    0.3511    2.1498   -0.0096 C   0  0  0  0  0  0
   -0.6073    1.7342    1.1476 C   0  0  0  0  0  0
    1.6157    1.2487   -0.1515 C   0  0  0  0  0  0
    1.1404   -0.2323   -0.2131 C   0  0  0  0  0  0
    2.4058   -1.0009   -0.5770 C   0  0  0  0  0  0
    3.1860   -0.0420   -1.5149 C   0  0  0  0  0  0
    2.4163    1.3303   -1.5250 C   0  0  0  0  0  0
    1.5263    1.3932   -2.7697 C   0  0  0  0  0  0
    2.5708    1.4949    1.0697 C   0  0  0  0  0  0
    0.0523    2.0794    2.3762 O   0  0  0  0  0  0
   -0.7983    2.1990    3.5079 C   0  0  0  0  0  0
    1.1674    2.4724   -3.4898 C   0  0  0  0  0  0
   -0.0681    2.3614   -5.1218 I   0  0  0  0  0  0
    3.2960    2.3154   -1.5896 O   0  0  0  0  0  0
   -5.1834   -1.7864    4.2960 O   0  0  0  0  0  0
   -5.1803    0.5462    3.0650 H   0  0  0  0  0  0
   -2.9697   -3.0736    3.7231 H   0  0  0  0  0  0
   -3.4059    1.3892    1.6636 H   0  0  0  0  0  0
   -1.1788   -3.5513    2.1325 H   0  0  0  0  0  0
   -0.1811   -2.4559    3.1011 H   0  0  0  0  0  0
   -0.6628   -2.3626    0.0732 H   0  0  0  0  0  0
    0.8372   -2.7679    0.9103 H   0  0  0  0  0  0
   -1.4310    0.1198    0.0059 H   0  0  0  0  0  0
    0.8680   -0.4960    1.9313 H   0  0  0  0  0  0
    0.6660    3.1914    0.1313 H   0  0  0  0  0  0
   -0.2362    2.1185   -0.9341 H   0  0  0  0  0  0
   -1.4996    2.3637    1.0491 H   0  0  0  0  0  0
    0.4684   -0.3507   -1.0768 H   0  0  0  0  0  0
    2.1779   -1.9443   -1.0837 H   0  0  0  0  0  0
    3.0032   -1.2364    0.3107 H   0  0  0  0  0  0
    3.2628   -0.4808   -2.5187 H   0  0  0  0  0  0
    4.2169    0.0437   -1.1429 H   0  0  0  0  0  0
    1.1251    0.4297   -3.0915 H   0  0  0  0  0  0
    3.5433    1.0067    0.9480 H   0  0  0  0  0  0
    2.1742    1.1287    2.0169 H   0  0  0  0  0  0
    2.7648    2.5669    1.1931 H   0  0  0  0  0  0
   -0.2388    2.7151    4.2935 H   0  0  0  0  0  0
   -1.0678    1.2138    3.8925 H   0  0  0  0  0  0
   -1.6887    2.7910    3.2784 H   0  0  0  0  0  0
    1.5140    3.4661   -3.2210 H   0  0  0  0  0  0
    3.6843    2.2994   -2.3455 H   0  0  0  0  0  0
   -4.9752   -2.5582    4.5850 H   0  0  0  0  0  0
  1  2  2  0  0  0
  1  4  1  0  0  0
  1 26  1  0  0  0
  2  3  1  0  0  0
  2 25  1  0  0  0
  3  6  2  0  0  0
  3 27  1  0  0  0
  4  5  2  0  0  0
  4 28  1  0  0  0
  5  6  1  0  0  0
  5  9  1  0  0  0
  6  7  1  0  0  0
  7  8  1  0  0  0
  7 29  1  0  0  0
  7 30  1  0  0  0
  8 10  1  0  0  0
  8 31  1  0  0  0
  8 32  1  0  0  0
  9 10  1  0  0  0
  9 12  1  0  0  0
  9 33  1  0  0  0
 10 14  1  0  0  0
 10 34  1  0  0  0
 11 12  1  0  0  0
 11 13  1  0  0  0
 11 35  1  0  0  0
 11 36  1  0  0  0
 12 20  1  0  0  0
 12 37  1  0  0  0
 13 14  1  0  0  0
 13 17  1  0  0  0
 13 19  1  0  0  0
 14 15  1  0  0  0
 14 38  1  0  0  0
 15 16  1  0  0  0
 15 39  1  0  0  0
 15 40  1  0  0  0
 16 17  1  0  0  0
 16 41  1  0  0  0
 16 42  1  0  0  0
 17 18  1  0  0  0
 17 24  1  0  0  0
 18 22  2  0  0  0
 18 43  1  0  0  0
 19 44  1  0  0  0
 19 45  1  0  0  0
 19 46  1  0  0  0
 20 21  1  0  0  0
 21 47  1  0  0  0
 21 48  1  0  0  0
 21 49  1  0  0  0
 22 23  1  0  0  0
 22 50  1  0  0  0
 24 51  1  0  0  0
 25 52  1  0  0  0
M  END
>  <Name>
tox-468

>  <substance>
(E )-11b-Methoxy-17a- iodovinylestradiol

>  <CASRN>
90857-55-9

>  <from_NCI>
1

>  <RBA>
14.000000

>  <method>
MCF-7 cytosol,RUC

>  <chemical_class>
Steroid, phenolic

>  <set>
2

$$$$
tox-469
  Cerius2 12190218273D 1   1.00000                          
 Structure written by MMmdl.
 41 41  0  0  0  0  0  0  0  0999 V2000
    0.6453    0.4327    0.8981 C   0  0  0  0  0  0
    0.7912   -0.9972    0.8157 N   0  0  0  0  0  0
   -0.6324    1.0343    0.7749 C   0  0  0  0  0  0
    1.7905    1.2460    1.0936 C   0  0  0  0  0  0
    0.6283   -1.5614   -0.5668 C   0  0  0  0  0  0
    1.1743   -1.6725    1.9865 C   0  0  0  0  0  0
   -0.7349    2.4368    0.8399 C   0  0  0  0  0  0
   -1.9279    0.2569    0.6660 C   0  0  0  0  0  0
    1.6404    2.6414    1.1648 C   0  0  0  0  0  0
    3.1818    0.6958    1.2775 C   0  0  0  0  0  0
   -0.2489   -2.8312   -0.6507 C   0  0  0  0  0  0
    1.9661   -1.7425   -1.2954 C   0  0  0  0  0  0
    1.5082   -3.1546    1.8891 C   0  0  0  0  0  0
    1.1980   -1.0975    3.0856 O   0  0  0  0  0  0
    0.3900    3.2328    1.0289 C   0  0  0  0  0  0
   -2.4065   -0.2622    2.0138 C   0  0  0  0  0  0
   -0.8253   -2.9339   -1.9641 O   0  0  0  0  0  0
    2.5637   -3.6551    3.2410 Cl  0  0  0  0  0  0
   -1.6678   -4.0813   -2.0692 C   0  0  0  0  0  0
    0.1032   -0.7994   -1.1597 H   0  0  0  0  0  0
   -1.7082    2.9215    0.7609 H   0  0  0  0  0  0
   -1.8337   -0.5670   -0.0432 H   0  0  0  0  0  0
   -2.7079    0.9012    0.2401 H   0  0  0  0  0  0
    2.5086    3.2800    1.3276 H   0  0  0  0  0  0
    3.3822    0.5390    2.3419 H   0  0  0  0  0  0
    3.9293    1.3929    0.8826 H   0  0  0  0  0  0
    3.3298   -0.2473    0.7473 H   0  0  0  0  0  0
   -1.0599   -2.7810    0.0846 H   0  0  0  0  0  0
    0.3412   -3.7334   -0.4631 H   0  0  0  0  0  0
    1.8084   -2.1329   -2.3064 H   0  0  0  0  0  0
    2.6416   -2.4244   -0.7753 H   0  0  0  0  0  0
    2.4831   -0.7824   -1.3945 H   0  0  0  0  0  0
    2.0520   -3.3963    0.9807 H   0  0  0  0  0  0
    0.5869   -3.7383    1.9508 H   0  0  0  0  0  0
    0.2892    4.3153    1.0843 H   0  0  0  0  0  0
   -3.3638   -0.7806    1.8993 H   0  0  0  0  0  0
   -2.5479    0.5573    2.7265 H   0  0  0  0  0  0
   -1.6941   -0.9680    2.4509 H   0  0  0  0  0  0
   -2.4964   -4.0120   -1.3582 H   0  0  0  0  0  0
   -1.0917   -4.9947   -1.8934 H   0  0  0  0  0  0
   -2.0765   -4.1136   -3.0826 H   0  0  0  0  0  0
  1  2  1  0  0  0
  1  3  2  0  0  0
  1  4  1  0  0  0
  2  5  1  0  0  0
  2  6  1  0  0  0
  3  7  1  0  0  0
  3  8  1  0  0  0
  4  9  2  0  0  0
  4 10  1  0  0  0
  5 11  1  0  0  0
  5 12  1  0  0  0
  5 20  1  0  0  0
  6 13  1  0  0  0
  6 14  2  0  0  0
  7 15  2  0  0  0
  7 21  1  0  0  0
  8 16  1  0  0  0
  8 22  1  0  0  0
  8 23  1  0  0  0
  9 15  1  0  0  0
  9 24  1  0  0  0
 10 25  1  0  0  0
 10 26  1  0  0  0
 10 27  1  0  0  0
 11 17  1  0  0  0
 11 28  1  0  0  0
 11 29  1  0  0  0
 12 30  1  0  0  0
 12 31  1  0  0  0
 12 32  1  0  0  0
 13 18  1  0  0  0
 13 33  1  0  0  0
 13 34  1  0  0  0
 15 35  1  0  0  0
 16 36  1  0  0  0
 16 37  1  0  0  0
 16 38  1  0  0  0
 17 19  1  0  0  0
 19 39  1  0  0  0
 19 40  1  0  0  0
 19 41  1  0  0  0
M  END
>  <Name>
tox-469

>  <substance>
Metolachlor

>  <CASRN>
51218-45-2

>  <from_NCI>
1

>  <RBA>
0.000000

>  <method>
RUC

>  <chemical_class>
Acetamide; Anilide

>  <set>
1

$$$$
tox-470
  Cerius2 12190218273D 1   1.00000                          
 Structure written by MMmdl.
 22 26  0  0  0  0  0  0  0  0999 V2000
    0.2639   -1.1185    1.2829 C   0  0  0  0  0  0
   -1.3617   -0.5199    0.3027 C   0  0  0  0  0  0
    1.9277   -0.7291    0.3391 C   0  0  0  0  0  0
    0.6825    0.0306    0.4264 C   0  0  0  0  0  0
    0.4374   -1.6777    2.9403 Cl  0  0  0  0  0  0
   -0.4276    0.0879   -1.0042 C   0  0  0  0  0  0
   -1.3782    1.2624    0.1700 C   0  0  0  0  0  0
   -2.8671   -1.4240    0.1703 Cl  0  0  0  0  0  0
    1.5547    0.5218    1.3589 C   0  0  0  0  0  0
    1.4259   -0.2631   -1.4365 C   0  0  0  0  0  0
    3.4417   -1.6352    0.4997 Cl  0  0  0  0  0  0
    0.0050    1.8410    0.0543 C   0  0  0  0  0  0
    0.2534   -2.1230   -0.4215 Cl  0  0  0  0  0  0
   -0.2974    0.9196    1.0081 C   0  0  0  0  0  0
   -1.3980    0.3186   -2.5232 Cl  0  0  0  0  0  0
   -2.7720    2.2838    0.4243 Cl  0  0  0  0  0  0
    2.8426    1.7211    1.3551 Cl  0  0  0  0  0  0
    1.7119   -1.4690   -2.7714 Cl  0  0  0  0  0  0
    2.5348    1.0728   -1.9101 Cl  0  0  0  0  0  0
    0.1897    2.8023   -1.4721 Cl  0  0  0  0  0  0
    0.2592    3.3524    1.3360 Cl  0  0  0  0  0  0
   -1.2700    0.8703    2.7500 Cl  0  0  0  0  0  0
  1  2  1  0  0  0
  1  3  1  0  0  0
  1  4  1  0  0  0
  1  5  1  0  0  0
  2  6  1  0  0  0
  2  7  1  0  0  0
  2  8  1  0  0  0
  3  9  1  0  0  0
  3 10  1  0  0  0
  3 11  1  0  0  0
  4  9  1  0  0  0
  4 12  1  0  0  0
  4 13  1  0  0  0
  6 10  1  0  0  0
  6 14  1  0  0  0
  6 15  1  0  0  0
  7 12  1  0  0  0
  7 14  1  0  0  0
  7 16  1  0  0  0
  9 14  1  0  0  0
  9 17  1  0  0  0
 10 18  1  0  0  0
 10 19  1  0  0  0
 12 20  1  0  0  0
 12 21  1  0  0  0
 14 22  1  0  0  0
M  END
>  <Name>
tox-470

>  <substance>
Mirex

>  <CASRN>
2385-85-5

>  <from_NCI>
1

>  <RBA>
0.000000

>  <method>
RUC

>  <chemical_class>
Organochlorine

>  <set>
0

$$$$
tox-471
  Cerius2 12190218273D 1   1.00000                          
 Structure written by MMmdl.
 48 50  0  0  0  0  0  0  0  0999 V2000
    0.3035   -0.7042    1.1242 C   0  0  0  0  0  0
    0.1133   -1.9545    0.6176 C   0  0  0  0  0  0
   -1.2559   -2.4748    0.3536 C   0  0  0  0  0  0
    1.6548   -0.1051    1.4939 C   0  0  0  0  0  0
   -0.8352    0.2025    1.4181 C   0  0  0  0  0  0
    1.2900   -2.8133    0.3293 C   0  0  0  0  0  0
    2.0196   -2.6505   -0.8561 C   0  0  0  0  0  0
    3.1229   -3.4641   -1.1219 C   0  0  0  0  0  0
    3.5014   -4.4472   -0.2084 C   0  0  0  0  0  0
    2.7772   -4.6201    0.9706 C   0  0  0  0  0  0
    1.6735   -3.8077    1.2391 C   0  0  0  0  0  0
    2.1407    0.9207    0.4766 C   0  0  0  0  0  0
   -1.2449    0.4177    2.7434 C   0  0  0  0  0  0
   -2.3243    1.2602    3.0276 C   0  0  0  0  0  0
   -3.0007    1.9010    1.9918 C   0  0  0  0  0  0
   -2.5766    1.7014    0.6799 C   0  0  0  0  0  0
   -1.5140    0.8502    0.3786 C   0  0  0  0  0  0
   -3.2850    2.3049   -0.3605 O   0  0  0  0  0  0
   -2.7534    3.5275   -0.7580 C   0  0  0  0  0  0
   -1.7697    4.0902   -0.2861 O   0  0  0  0  0  0
   -3.5853    4.0752   -1.8793 C   0  0  0  0  0  0
   -1.7416   -2.5429   -0.9594 C   0  0  0  0  0  0
   -3.0226   -3.0382   -1.2131 C   0  0  0  0  0  0
   -3.8242   -3.4744   -0.1591 C   0  0  0  0  0  0
   -3.3464   -3.4187    1.1496 C   0  0  0  0  0  0
   -2.0659   -2.9239    1.4059 C   0  0  0  0  0  0
    2.4225   -0.8786    1.6011 H   0  0  0  0  0  0
    1.5990    0.3692    2.4819 H   0  0  0  0  0  0
    1.7327   -1.8889   -1.5791 H   0  0  0  0  0  0
    3.6866   -3.3311   -2.0435 H   0  0  0  0  0  0
    4.3614   -5.0814   -0.4167 H   0  0  0  0  0  0
    3.0717   -5.3891    1.6826 H   0  0  0  0  0  0
    1.1172   -3.9528    2.1636 H   0  0  0  0  0  0
    3.1347    1.2843    0.7570 H   0  0  0  0  0  0
    1.4726    1.7867    0.4287 H   0  0  0  0  0  0
    2.2109    0.4875   -0.5261 H   0  0  0  0  0  0
   -0.7330   -0.0820    3.5647 H   0  0  0  0  0  0
   -2.6394    1.4092    4.0587 H   0  0  0  0  0  0
   -3.8477    2.5465    2.2098 H   0  0  0  0  0  0
   -1.2187    0.6937   -0.6558 H   0  0  0  0  0  0
   -3.1670    5.0313   -2.2066 H   0  0  0  0  0  0
   -4.6086    4.2420   -1.5340 H   0  0  0  0  0  0
   -3.5711    3.3821   -2.7242 H   0  0  0  0  0  0
   -1.1277   -2.2050   -1.7923 H   0  0  0  0  0  0
   -3.3947   -3.0836   -2.2350 H   0  0  0  0  0  0
   -4.8226   -3.8601   -0.3579 H   0  0  0  0  0  0
   -3.9709   -3.7614    1.9725 H   0  0  0  0  0  0
   -1.7043   -2.8882    2.4321 H   0  0  0  0  0  0
  1  2  2  0  0  0
  1  4  1  0  0  0
  1  5  1  0  0  0
  2  3  1  0  0  0
  2  6  1  0  0  0
  3 22  2  0  0  0
  3 26  1  0  0  0
  4 12  1  0  0  0
  4 27  1  0  0  0
  4 28  1  0  0  0
  5 13  2  0  0  0
  5 17  1  0  0  0
  6  7  2  0  0  0
  6 11  1  0  0  0
  7  8  1  0  0  0
  7 29  1  0  0  0
  8  9  2  0  0  0
  8 30  1  0  0  0
  9 10  1  0  0  0
  9 31  1  0  0  0
 10 11  2  0  0  0
 10 32  1  0  0  0
 11 33  1  0  0  0
 12 34  1  0  0  0
 12 35  1  0  0  0
 12 36  1  0  0  0
 13 14  1  0  0  0
 13 37  1  0  0  0
 14 15  2  0  0  0
 14 38  1  0  0  0
 15 16  1  0  0  0
 15 39  1  0  0  0
 16 17  2  0  0  0
 16 18  1  0  0  0
 17 40  1  0  0  0
 18 19  1  0  0  0
 19 20  2  0  0  0
 19 21  1  0  0  0
 21 41  1  0  0  0
 21 42  1  0  0  0
 21 43  1  0  0  0
 22 23  1  0  0  0
 22 44  1  0  0  0
 23 24  2  0  0  0
 23 45  1  0  0  0
 24 25  1  0  0  0
 24 46  1  0  0  0
 25 26  2  0  0  0
 25 47  1  0  0  0
 26 48  1  0  0  0
M  END
>  <Name>
tox-471

>  <substance>
Mono-m -acetoxy-1,1,2-triphenylbut-1-ene

>  <CASRN>
82333-69-5

>  <from_NCI>
0

>  <RBA>
1.000000

>  <method>
RUC

>  <chemical_class>
Triphenylethylene

>  <set>
0

$$$$
tox-472
  Cerius2 12190218273D 1   1.00000                          
 Structure written by MMmdl.
 33 34  0  0  0  0  0  0  0  0999 V2000
    0.8276   -3.5326    3.3443 Cl  0  0  0  0  0  0
    1.0023   -1.7161    3.2658 C   0  0  0  0  0  0
    0.3154   -1.1008    4.8309 Cl  0  0  0  0  0  0
    2.7767   -1.3876    3.2814 Cl  0  0  0  0  0  0
    0.2220   -1.1389    2.0280 C   0  0  0  0  0  0
   -0.0811    0.3733    1.9859 C   0  0  0  0  0  0
   -1.3305    0.7939    1.4836 C   0  0  0  0  0  0
   -1.6610    2.1492    1.4061 C   0  0  0  0  0  0
   -0.7434    3.1030    1.8215 C   0  0  0  0  0  0
   -1.0966    4.4168    1.7327 O   0  0  0  0  0  0
    0.5004    2.7213    2.3084 C   0  0  0  0  0  0
    0.8308    1.3628    2.3857 C   0  0  0  0  0  0
    0.7235   -1.6396    0.6611 C   0  0  0  0  0  0
    1.8460   -1.0869    0.0281 C   0  0  0  0  0  0
    2.2730   -1.5650   -1.2153 C   0  0  0  0  0  0
    1.5901   -2.5993   -1.8569 C   0  0  0  0  0  0
    2.1117   -2.9710   -3.0652 O   0  0  0  0  0  0
    1.4437   -4.0272   -3.7538 C   0  0  0  0  0  0
    0.4692   -3.1530   -1.2427 C   0  0  0  0  0  0
    0.0395   -2.6762    0.0023 C   0  0  0  0  0  0
   -0.7824   -1.5797    2.1459 H   0  0  0  0  0  0
   -2.0622    0.0606    1.1440 H   0  0  0  0  0  0
   -2.6319    2.4493    1.0188 H   0  0  0  0  0  0
   -0.3488    4.9601    2.0613 H   0  0  0  0  0  0
    1.2292    3.4624    2.6291 H   0  0  0  0  0  0
    1.8192    1.1105    2.7583 H   0  0  0  0  0  0
    2.4050   -0.2737    0.4874 H   0  0  0  0  0  0
    3.1488   -1.1185   -1.6836 H   0  0  0  0  0  0
    1.9792   -4.2034   -4.6916 H   0  0  0  0  0  0
    0.4157   -3.7453   -4.0039 H   0  0  0  0  0  0
    1.4723   -4.9551   -3.1732 H   0  0  0  0  0  0
   -0.0999   -3.9579   -1.7001 H   0  0  0  0  0  0
   -0.8426   -3.1302    0.4542 H   0  0  0  0  0  0
  1  2  1  0  0  0
  2  3  1  0  0  0
  2  4  1  0  0  0
  2  5  1  0  0  0
  5  6  1  0  0  0
  5 13  1  0  0  0
  5 21  1  0  0  0
  6  7  2  0  0  0
  6 12  1  0  0  0
  7  8  1  0  0  0
  7 22  1  0  0  0
  8  9  2  0  0  0
  8 23  1  0  0  0
  9 10  1  0  0  0
  9 11  1  0  0  0
 10 24  1  0  0  0
 11 12  2  0  0  0
 11 25  1  0  0  0
 12 26  1  0  0  0
 13 14  2  0  0  0
 13 20  1  0  0  0
 14 15  1  0  0  0
 14 27  1  0  0  0
 15 16  2  0  0  0
 15 28  1  0  0  0
 16 17  1  0  0  0
 16 19  1  0  0  0
 17 18  1  0  0  0
 18 29  1  0  0  0
 18 30  1  0  0  0
 18 31  1  0  0  0
 19 20  2  0  0  0
 19 32  1  0  0  0
 20 33  1  0  0  0
M  END
>  <Name>
tox-472

>  <substance>
Monohydroxymethoxychlor

>  <CASRN>
28463-03-8

>  <from_NCI>
0

>  <RBA>
0.100000

>  <method>
RUC

>  <chemical_class>
Organochlorine

>  <set>
0

$$$$
tox-473
  Cerius2 12190218273D 1   1.00000                          
 Structure written by MMmdl.
 31 32  0  0  0  0  0  0  0  0999 V2000
    4.4192    0.9614   -0.7016 C   0  0  0  0  0  0
    3.8056    0.6678   -1.9355 C   0  0  0  0  0  0
    2.5653    0.0139   -2.0434 C   0  0  0  0  0  0
    1.8769   -0.3821   -0.8979 C   0  0  0  0  0  0
    2.4466   -0.1098    0.3449 C   0  0  0  0  0  0
    3.6881    0.5451    0.4286 C   0  0  0  0  0  0
    0.5627   -1.0631   -0.9993 C   0  0  0  0  0  0
    0.4982   -2.4150   -1.0406 C   0  0  0  0  0  0
   -0.6861   -0.2635   -1.0555 C   0  0  0  0  0  0
   -1.3408    0.1115    0.1240 C   0  0  0  0  0  0
   -2.5201    0.8649    0.0749 C   0  0  0  0  0  0
   -3.0548    1.2523   -1.1541 C   0  0  0  0  0  0
   -2.4001    0.8807   -2.3315 C   0  0  0  0  0  0
   -1.2226    0.1288   -2.2865 C   0  0  0  0  0  0
   -4.1944    1.9859   -1.3388 O   0  0  0  0  0  0
   -4.8968    2.3869   -0.1633 C   0  0  0  0  0  0
   -1.0062   -3.2895   -1.1539 Cl  0  0  0  0  0  0
    1.9084   -3.4372   -0.9853 Cl  0  0  0  0  0  0
    5.5409    1.5543   -0.6150 O   0  0  0  0  0  0
    4.3022    0.9554   -2.8667 H   0  0  0  0  0  0
    2.1536   -0.1769   -3.0330 H   0  0  0  0  0  0
    1.9396   -0.3995    1.2638 H   0  0  0  0  0  0
    4.0886    0.7324    1.4291 H   0  0  0  0  0  0
   -0.9404   -0.1804    1.0939 H   0  0  0  0  0  0
   -2.9912    1.1300    1.0176 H   0  0  0  0  0  0
   -2.8059    1.1769   -3.2974 H   0  0  0  0  0  0
   -0.7327   -0.1471   -3.2187 H   0  0  0  0  0  0
   -5.7745    2.9587   -0.4795 H   0  0  0  0  0  0
   -4.2788    3.0410    0.4603 H   0  0  0  0  0  0
   -5.2499    1.5167    0.3997 H   0  0  0  0  0  0
    5.7512    1.6447    0.2036 H   0  0  0  0  0  0
  1  2  2  0  0  0
  1  6  1  0  0  0
  1 19  1  0  0  0
  2  3  1  0  0  0
  2 20  1  0  0  0
  3  4  2  0  0  0
  3 21  1  0  0  0
  4  5  1  0  0  0
  4  7  1  0  0  0
  5  6  2  0  0  0
  5 22  1  0  0  0
  6 23  1  0  0  0
  7  8  2  0  0  0
  7  9  1  0  0  0
  8 17  1  0  0  0
  8 18  1  0  0  0
  9 10  2  0  0  0
  9 14  1  0  0  0
 10 11  1  0  0  0
 10 24  1  0  0  0
 11 12  2  0  0  0
 11 25  1  0  0  0
 12 13  1  0  0  0
 12 15  1  0  0  0
 13 14  2  0  0  0
 13 26  1  0  0  0
 14 27  1  0  0  0
 15 16  1  0  0  0
 16 28  1  0  0  0
 16 29  1  0  0  0
 16 30  1  0  0  0
 19 31  1  0  0  0
M  END
>  <Name>
tox-473

>  <substance>
Monohydroxymethoxychlor olefin

>  <CASRN>
75938-34-0

>  <from_NCI>
1

>  <RBA>
0.200000

>  <method>
RUC

>  <chemical_class>
Organochlorine

>  <set>
0

$$$$
tox-474
  Cerius2 12190218273D 1   1.00000                          
 Structure written by MMmdl.
 58 60  0  0  0  0  0  0  0  0999 V2000
   -4.4474    4.2377    0.0563 C   0  0  0  0  0  0
   -4.5327    2.8489    0.1746 C   0  0  0  0  0  0
   -4.0449    2.0186   -0.8439 C   0  0  0  0  0  0
   -3.4725    2.6007   -1.9826 C   0  0  0  0  0  0
   -3.3881    3.9900   -2.0991 C   0  0  0  0  0  0
   -3.8755    4.8076   -1.0802 C   0  0  0  0  0  0
   -4.1451    0.5424   -0.7156 C   0  0  0  0  0  0
   -5.5645    0.0244   -0.9167 C   0  0  0  0  0  0
   -3.0665   -0.2287   -0.3994 C   0  0  0  0  0  0
   -3.2274   -1.7013   -0.2808 C   0  0  0  0  0  0
   -1.7307    0.3833   -0.1593 C   0  0  0  0  0  0
   -0.7235    0.2812   -1.1276 C   0  0  0  0  0  0
    0.5434    0.8359   -0.9036 C   0  0  0  0  0  0
    0.8183    1.4952    0.2945 C   0  0  0  0  0  0
   -0.1842    1.5971    1.2622 C   0  0  0  0  0  0
   -1.4484    1.0420    1.0425 C   0  0  0  0  0  0
   -3.3923   -2.2965    0.9694 C   0  0  0  0  0  0
   -3.5328   -3.6914    1.0811 C   0  0  0  0  0  0
   -3.5113   -4.5599   -0.0278 C   0  0  0  0  0  0
   -3.3384   -3.9176   -1.2699 C   0  0  0  0  0  0
   -3.1984   -2.5245   -1.4054 C   0  0  0  0  0  0
   -5.9707   -0.0280   -2.3850 C   0  0  0  0  0  0
    2.0060    2.0782    0.6385 O   0  0  0  0  0  0
    3.1054    1.9065   -0.2681 C   0  0  0  0  0  0
    4.3375    2.5956    0.3472 C   0  0  0  0  0  0
    5.5428    2.5914   -0.5127 N   0  0  0  0  0  0
   -3.6371   -5.8210    0.0837 O   0  0  0  0  0  0
    6.0853    1.2344   -0.6656 C   0  0  0  0  0  0
    6.5717    3.4572    0.0845 C   0  0  0  0  0  0
   -4.8273    4.8746    0.8531 H   0  0  0  0  0  0
   -4.9767    2.4187    1.0707 H   0  0  0  0  0  0
   -3.0903    1.9750   -2.7871 H   0  0  0  0  0  0
   -2.9415    4.4337   -2.9869 H   0  0  0  0  0  0
   -3.8086    5.8905   -1.1717 H   0  0  0  0  0  0
   -6.2773    0.6554   -0.3708 H   0  0  0  0  0  0
   -5.6930   -0.9745   -0.4866 H   0  0  0  0  0  0
   -0.9180   -0.2298   -2.0692 H   0  0  0  0  0  0
    1.2866    0.7337   -1.6898 H   0  0  0  0  0  0
    0.0162    2.1088    2.2018 H   0  0  0  0  0  0
   -2.2096    1.1286    1.8158 H   0  0  0  0  0  0
   -3.4181   -1.6883    1.8722 H   0  0  0  0  0  0
   -3.6634   -4.1026    2.0860 H   0  0  0  0  0  0
   -3.3078   -4.5151   -2.1854 H   0  0  0  0  0  0
   -3.0665   -2.0998   -2.3989 H   0  0  0  0  0  0
   -6.9752   -0.4535   -2.4787 H   0  0  0  0  0  0
   -5.2837   -0.6515   -2.9664 H   0  0  0  0  0  0
   -5.9902    0.9705   -2.8335 H   0  0  0  0  0  0
    2.8702    2.3770   -1.2301 H   0  0  0  0  0  0
    3.2995    0.8370   -0.4060 H   0  0  0  0  0  0
    4.5508    2.1505    1.3286 H   0  0  0  0  0  0
    4.0493    3.6353    0.5537 H   0  0  0  0  0  0
    7.0041    1.2555   -1.2628 H   0  0  0  0  0  0
    5.3865    0.5904   -1.2080 H   0  0  0  0  0  0
    6.3137    0.7687    0.3002 H   0  0  0  0  0  0
    7.4604    3.4936   -0.5557 H   0  0  0  0  0  0
    6.8747    3.1132    1.0802 H   0  0  0  0  0  0
    6.2050    4.4864    0.1687 H   0  0  0  0  0  0
   -3.5997   -6.1787   -0.6865 H   0  0  0  0  0  0
  1  2  2  0  0  0
  1  6  1  0  0  0
  1 30  1  0  0  0
  2  3  1  0  0  0
  2 31  1  0  0  0
  3  4  2  0  0  0
  3  7  1  0  0  0
  4  5  1  0  0  0
  4 32  1  0  0  0
  5  6  2  0  0  0
  5 33  1  0  0  0
  6 34  1  0  0  0
  7  8  1  0  0  0
  7  9  2  0  0  0
  8 22  1  0  0  0
  8 35  1  0  0  0
  8 36  1  0  0  0
  9 10  1  0  0  0
  9 11  1  0  0  0
 10 17  2  0  0  0
 10 21  1  0  0  0
 11 12  2  0  0  0
 11 16  1  0  0  0
 12 13  1  0  0  0
 12 37  1  0  0  0
 13 14  2  0  0  0
 13 38  1  0  0  0
 14 15  1  0  0  0
 14 23  1  0  0  0
 15 16  2  0  0  0
 15 39  1  0  0  0
 16 40  1  0  0  0
 17 18  1  0  0  0
 17 41  1  0  0  0
 18 19  2  0  0  0
 18 42  1  0  0  0
 19 20  1  0  0  0
 19 27  1  0  0  0
 20 21  2  0  0  0
 20 43  1  0  0  0
 21 44  1  0  0  0
 22 45  1  0  0  0
 22 46  1  0  0  0
 22 47  1  0  0  0
 23 24  1  0  0  0
 24 25  1  0  0  0
 24 48  1  0  0  0
 24 49  1  0  0  0
 25 26  1  0  0  0
 25 50  1  0  0  0
 25 51  1  0  0  0
 26 28  1  0  0  0
 26 29  1  0  0  0
 27 58  1  0  0  0
 28 52  1  0  0  0
 28 53  1  0  0  0
 28 54  1  0  0  0
 29 55  1  0  0  0
 29 56  1  0  0  0
 29 57  1  0  0  0
M  END
>  <Name>
tox-474

>  <substance>
Monohydroxytamoxifen

>  <CASRN>
68392-35-8

>  <from_NCI>
1

>  <RBA>
52.000000

>  <method>
RUC

>  <chemical_class>
Triphenylethylene

>  <set>
0

$$$$
tox-475
  Cerius2 12190218273D 1   1.00000                          
 Structure written by MMmdl.
 32 34  0  0  0  0  0  0  0  0999 V2000
   -1.7714    1.1545   -1.2779 C   0  0  0  0  0  0
   -1.6159    0.2592   -0.2218 C   0  0  0  0  0  0
   -0.4918    1.7058   -1.8447 C   0  0  0  0  0  0
   -3.0798    1.5185   -1.7380 C   0  0  0  0  0  0
   -0.4000   -0.1483    0.2493 O   0  0  0  0  0  0
   -2.7266   -0.2801    0.4429 C   0  0  0  0  0  0
    0.8317    0.9729   -1.5366 C   0  0  0  0  0  0
   -0.4789    2.7345   -2.5277 O   0  0  0  0  0  0
   -4.1515    0.9181   -1.0096 C   0  0  0  0  0  0
   -3.3503    2.2967   -2.7164 O   0  0  0  0  0  0
    0.7337    0.1041   -0.4943 C   0  0  0  0  0  0
   -4.0423    0.0250    0.0829 C   0  0  0  0  0  0
    1.8250    1.2937   -2.2644 O   0  0  0  0  0  0
    1.9038   -0.6638    0.0503 C   0  0  0  0  0  0
   -5.0534   -0.4615    0.6815 O   0  0  0  0  0  0
    2.1062   -2.0548   -0.1944 C   0  0  0  0  0  0
    2.7845    0.0512    0.8861 C   0  0  0  0  0  0
    3.2524   -2.6084    0.4534 C   0  0  0  0  0  0
    1.3578   -2.7942   -0.9227 O   0  0  0  0  0  0
    3.8858   -0.5715    1.4844 C   0  0  0  0  0  0
    4.1710   -1.9274    1.2949 C   0  0  0  0  0  0
    5.1694   -2.5030    1.8334 O   0  0  0  0  0  0
   -2.5395   -0.9691    1.2706 H   0  0  0  0  0  0
   -5.1720    1.1762   -1.3311 H   0  0  0  0  0  0
    2.6148    1.1104    1.0782 H   0  0  0  0  0  0
    3.4432   -3.6786    0.2844 H   0  0  0  0  0  0
    4.5317    0.0408    2.1189 H   0  0  0  0  0  0
   -4.1935    2.3628   -2.8012 H   0  0  0  0  0  0
    2.5067    0.8449   -2.0272 H   0  0  0  0  0  0
   -5.7647   -0.1629    0.3246 H   0  0  0  0  0  0
    1.6634   -3.5873   -0.9293 H   0  0  0  0  0  0
    5.6033   -1.9402    2.2998 H   0  0  0  0  0  0
  1  2  2  0  0  0
  1  3  1  0  0  0
  1  4  1  0  0  0
  2  5  1  0  0  0
  2  6  1  0  0  0
  3  7  1  0  0  0
  3  8  2  0  0  0
  4  9  2  0  0  0
  4 10  1  0  0  0
  5 11  1  0  0  0
  6 12  2  0  0  0
  6 23  1  0  0  0
  7 11  2  0  0  0
  7 13  1  0  0  0
  9 12  1  0  0  0
  9 24  1  0  0  0
 10 28  1  0  0  0
 11 14  1  0  0  0
 12 15  1  0  0  0
 13 29  1  0  0  0
 14 16  2  0  0  0
 14 17  1  0  0  0
 15 30  1  0  0  0
 16 18  1  0  0  0
 16 19  1  0  0  0
 17 20  2  0  0  0
 17 25  1  0  0  0
 18 21  2  0  0  0
 18 26  1  0  0  0
 19 31  1  0  0  0
 20 21  1  0  0  0
 20 27  1  0  0  0
 21 22  1  0  0  0
 22 32  1  0  0  0
M  END
>  <Name>
tox-475

>  <substance>
Morin

>  <CASRN>
480-16-0

>  <from_NCI>
1

>  <RBA>
0.000500

>  <method>
RUC

>  <chemical_class>
Flavone

>  <set>
0

$$$$
tox-476
  Cerius2 12190218273D 1   1.00000                          
 Structure written by MMmdl.
 50 53  0  0  0  0  0  0  0  0999 V2000
   -4.0289    0.0456    2.9783 C   0  0  0  0  0  0
   -3.9961   -1.2195    3.5846 C   0  0  0  0  0  0
   -2.9278   -2.0319    3.1620 C   0  0  0  0  0  0
   -3.0737    0.4764    2.0392 C   0  0  0  0  0  0
   -2.0057   -0.3431    1.6574 C   0  0  0  0  0  0
   -1.9572   -1.6324    2.2100 C   0  0  0  0  0  0
   -0.8645   -2.6148    1.8600 C   0  0  0  0  0  0
   -0.1181   -2.2619    0.5775 C   0  0  0  0  0  0
   -0.9928    0.1054    0.6015 C   0  0  0  0  0  0
    0.2884   -0.7853    0.5995 C   0  0  0  0  0  0
    0.3628    1.9849   -0.5349 C   0  0  0  0  0  0
   -0.6288    1.6275    0.6072 C   0  0  0  0  0  0
    1.6206    1.0750   -0.5985 C   0  0  0  0  0  0
    1.1334   -0.4021   -0.6215 C   0  0  0  0  0  0
    2.4010   -1.1945   -0.9298 C   0  0  0  0  0  0
    3.2201   -0.2731   -1.8694 C   0  0  0  0  0  0
    2.4646    1.0938   -1.9401 C   0  0  0  0  0  0
   -4.8593   -1.6005    4.4372 O   0  0  0  0  0  0
   -0.1085    1.9885    1.8975 O   0  0  0  0  0  0
    3.3208    2.0947   -2.0463 O   0  0  0  0  0  0
    1.6211    1.1250   -3.1620 C   0  0  0  0  0  0
    0.9312    1.1216   -4.1482 C   0  0  0  0  0  0
   -0.2577    3.3739    2.1978 C   0  0  0  0  0  0
    2.5311    1.3690    0.6431 C   0  0  0  0  0  0
   -4.8302    0.7456    3.2330 H   0  0  0  0  0  0
   -2.8359   -3.0375    3.5860 H   0  0  0  0  0  0
   -3.2011    1.4710    1.6170 H   0  0  0  0  0  0
   -1.2894   -3.6200    1.7504 H   0  0  0  0  0  0
   -0.1554   -2.6454    2.6969 H   0  0  0  0  0  0
   -0.7540   -2.4648   -0.2939 H   0  0  0  0  0  0
    0.7599   -2.9116    0.4918 H   0  0  0  0  0  0
   -1.5087   -0.0755   -0.3553 H   0  0  0  0  0  0
    0.8573   -0.6201    1.5217 H   0  0  0  0  0  0
    0.6800    3.0305   -0.4585 H   0  0  0  0  0  0
   -0.2011    1.9035   -1.4715 H   0  0  0  0  0  0
   -1.5441    2.2054    0.4283 H   0  0  0  0  0  0
    0.4745   -0.5426   -1.4930 H   0  0  0  0  0  0
    2.1756   -2.1487   -1.4171 H   0  0  0  0  0  0
    2.9702   -1.4131   -0.0194 H   0  0  0  0  0  0
    3.3245   -0.7427   -2.8565 H   0  0  0  0  0  0
    4.2367   -0.1804   -1.4619 H   0  0  0  0  0  0
    0.3202    1.1196   -5.0231 H   0  0  0  0  0  0
    0.1316    3.5451    3.2051 H   0  0  0  0  0  0
   -1.3142    3.6576    2.1827 H   0  0  0  0  0  0
    0.3118    3.9926    1.5003 H   0  0  0  0  0  0
    3.4874    0.8380    0.5969 H   0  0  0  0  0  0
    2.0764    1.0875    1.5933 H   0  0  0  0  0  0
    2.7607    2.4394    0.7041 H   0  0  0  0  0  0
   -4.6767   -2.3907    4.6915 H   0  0  0  0  0  0
    3.7333    2.0372   -2.7872 H   0  0  0  0  0  0
  1  2  2  0  0  0
  1  4  1  0  0  0
  1 25  1  0  0  0
  2  3  1  0  0  0
  2 18  1  0  0  0
  3  6  2  0  0  0
  3 26  1  0  0  0
  4  5  2  0  0  0
  4 27  1  0  0  0
  5  6  1  0  0  0
  5  9  1  0  0  0
  6  7  1  0  0  0
  7  8  1  0  0  0
  7 28  1  0  0  0
  7 29  1  0  0  0
  8 10  1  0  0  0
  8 30  1  0  0  0
  8 31  1  0  0  0
  9 10  1  0  0  0
  9 12  1  0  0  0
  9 32  1  0  0  0
 10 14  1  0  0  0
 10 33  1  0  0  0
 11 12  1  0  0  0
 11 13  1  0  0  0
 11 34  1  0  0  0
 11 35  1  0  0  0
 12 19  1  0  0  0
 12 36  1  0  0  0
 13 14  1  0  0  0
 13 17  1  0  0  0
 13 24  1  0  0  0
 14 15  1  0  0  0
 14 37  1  0  0  0
 15 16  1  0  0  0
 15 38  1  0  0  0
 15 39  1  0  0  0
 16 17  1  0  0  0
 16 40  1  0  0  0
 16 41  1  0  0  0
 17 20  1  0  0  0
 17 21  1  0  0  0
 18 49  1  0  0  0
 19 23  1  0  0  0
 20 50  1  0  0  0
 21 22  3  0  0  0
 22 42  1  0  0  0
 23 43  1  0  0  0
 23 44  1  0  0  0
 23 45  1  0  0  0
 24 46  1  0  0  0
 24 47  1  0  0  0
 24 48  1  0  0  0
M  END
>  <Name>
tox-476

>  <substance>
Moxestrol

>  <CASRN>
34816-55-2

>  <from_NCI>
1

>  <RBA>
20.000000

>  <method>
hERa,MUC,RUC

>  <chemical_class>
Steroid, phenolic

>  <set>
0

$$$$
tox-477
  Cerius2 12190218273D 1   1.00000                          
 Structure written by MMmdl.
 33 35  0  0  0  0  0  0  0  0999 V2000
   -1.4563   -0.6878   -0.9246 C   0  0  0  0  0  0
   -1.3782   -1.7054   -1.8732 C   0  0  0  0  0  0
   -0.3729   -0.2126   -0.2406 O   0  0  0  0  0  0
   -2.6816   -0.0885   -0.6021 C   0  0  0  0  0  0
   -0.0094   -2.2980   -2.0601 C   0  0  0  0  0  0
   -2.5488   -2.1417   -2.5746 C   0  0  0  0  0  0
    0.8945   -0.5126   -0.6939 C   0  0  0  0  0  0
   -3.8831   -0.4540   -1.2162 C   0  0  0  0  0  0
    1.2133   -1.4806   -1.5932 C   0  0  0  0  0  0
    0.1502   -3.4172   -2.5560 O   0  0  0  0  0  0
   -3.7506   -1.4737   -2.1895 C   0  0  0  0  0  0
   -2.5953   -3.0349   -3.4889 O   0  0  0  0  0  0
    1.9037    0.3677   -0.0477 C   0  0  0  0  0  0
   -4.9981    0.0860   -0.9292 O   0  0  0  0  0  0
    2.3342   -1.8309   -2.0814 O   0  0  0  0  0  0
    2.7687   -0.1112    0.9361 C   0  0  0  0  0  0
    1.9662    1.7245   -0.3669 C   0  0  0  0  0  0
    3.7149    0.6985    1.6187 C   0  0  0  0  0  0
    2.8687    2.6380    0.2386 C   0  0  0  0  0  0
    3.7753    2.1172    1.2631 C   0  0  0  0  0  0
    4.4606    0.1493    2.5061 O   0  0  0  0  0  0
    2.8416    3.8634   -0.1391 O   0  0  0  0  0  0
    4.6173    2.9006    1.8477 O   0  0  0  0  0  0
   -2.6808    0.6969    0.1581 H   0  0  0  0  0  0
   -4.6733   -1.7829   -2.7036 H   0  0  0  0  0  0
    2.7040   -1.1736    1.1909 H   0  0  0  0  0  0
    1.2748    2.0965   -1.1297 H   0  0  0  0  0  0
   -3.3969   -3.1242   -3.7572 H   0  0  0  0  0  0
   -5.6122   -0.2636   -1.4017 H   0  0  0  0  0  0
    2.9471   -1.3301   -1.7715 H   0  0  0  0  0  0
    4.9804    0.7331    2.8401 H   0  0  0  0  0  0
    3.4239    4.3062    0.2937 H   0  0  0  0  0  0
    4.5342    3.6877    1.5378 H   0  0  0  0  0  0
  1  2  2  0  0  0
  1  3  1  0  0  0
  1  4  1  0  0  0
  2  5  1  0  0  0
  2  6  1  0  0  0
  3  7  1  0  0  0
  4  8  2  0  0  0
  4 24  1  0  0  0
  5  9  1  0  0  0
  5 10  2  0  0  0
  6 11  2  0  0  0
  6 12  1  0  0  0
  7  9  2  0  0  0
  7 13  1  0  0  0
  8 11  1  0  0  0
  8 14  1  0  0  0
  9 15  1  0  0  0
 11 25  1  0  0  0
 12 28  1  0  0  0
 13 16  2  0  0  0
 13 17  1  0  0  0
 14 29  1  0  0  0
 15 30  1  0  0  0
 16 18  1  0  0  0
 16 26  1  0  0  0
 17 19  2  0  0  0
 17 27  1  0  0  0
 18 20  2  0  0  0
 18 21  1  0  0  0
 19 20  1  0  0  0
 19 22  1  0  0  0
 20 23  1  0  0  0
 21 31  1  0  0  0
 22 32  1  0  0  0
 23 33  1  0  0  0
M  END
>  <Name>
tox-477

>  <substance>
Myricetin

>  <CASRN>
529-44-2

>  <from_NCI>
1

>  <RBA>
0.002000

>  <method>
RUC

>  <chemical_class>
Flavone

>  <set>
0

$$$$
tox-478
  Cerius2 12190218273D 1   1.00000                          
 Structure written by MMmdl.
 63 67  0  0  0  0  0  0  0  0999 V2000
    0.4694   -2.6476   -2.5053 C   0  0  0  0  0  0
   -0.7852   -3.4518   -2.3585 C   0  0  0  0  0  0
    1.6099   -3.3145   -2.8257 C   0  0  0  0  0  0
    0.5101   -1.1779   -2.2910 C   0  0  0  0  0  0
   -0.8629   -4.7581   -2.8734 C   0  0  0  0  0  0
   -1.9168   -2.9253   -1.7173 C   0  0  0  0  0  0
    2.9303   -2.6704   -2.9962 C   0  0  0  0  0  0
    1.6333   -4.8150   -3.0341 C   0  0  0  0  0  0
    0.0096   -0.3125   -3.2691 C   0  0  0  0  0  0
    1.0209   -0.6389   -1.1039 C   0  0  0  0  0  0
    0.3176   -5.3431   -3.6013 C   0  0  0  0  0  0
   -2.0543   -5.4938   -2.7629 C   0  0  0  0  0  0
   -3.0980   -3.6701   -1.5966 C   0  0  0  0  0  0
    3.9293   -2.8513   -2.0308 C   0  0  0  0  0  0
    3.2068   -1.8930   -4.1284 C   0  0  0  0  0  0
    0.0343    1.0697   -3.0628 C   0  0  0  0  0  0
    1.0442    0.7465   -0.9011 C   0  0  0  0  0  0
   -3.1723   -4.9571   -2.1220 C   0  0  0  0  0  0
    5.1817   -2.2543   -2.1907 C   0  0  0  0  0  0
    4.4598   -1.2969   -4.2865 C   0  0  0  0  0  0
    0.5539    1.6082   -1.8817 C   0  0  0  0  0  0
   -4.2620   -5.7819   -2.0780 O   0  0  0  0  0  0
    5.4459   -1.4770   -3.3176 C   0  0  0  0  0  0
    0.5088    2.9722   -1.8142 O   0  0  0  0  0  0
   -5.4295   -5.2685   -1.4380 C   0  0  0  0  0  0
    1.0940    3.6290   -0.6808 C   0  0  0  0  0  0
    0.0699    3.7717    0.4606 C   0  0  0  0  0  0
    0.6348    4.3964    1.6775 N   0  0  0  0  0  0
    0.8158    5.8536    1.5268 C   0  0  0  0  0  0
   -0.3083    4.2892    2.8091 C   0  0  0  0  0  0
   -0.5318    6.4883    1.8412 C   0  0  0  0  0  0
   -1.2823    5.4470    2.6579 C   0  0  0  0  0  0
   -1.9020   -1.9220   -1.2938 H   0  0  0  0  0  0
    1.8445   -5.2962   -2.0698 H   0  0  0  0  0  0
    2.4395   -5.1074   -3.7190 H   0  0  0  0  0  0
   -0.4002   -0.7064   -4.1974 H   0  0  0  0  0  0
    1.4045   -1.2956   -0.3245 H   0  0  0  0  0  0
    0.2328   -5.0822   -4.6638 H   0  0  0  0  0  0
    0.3132   -6.4370   -3.5283 H   0  0  0  0  0  0
   -2.1104   -6.4980   -3.1820 H   0  0  0  0  0  0
   -3.9384   -3.2057   -1.0875 H   0  0  0  0  0  0
    3.7370   -3.4530   -1.1440 H   0  0  0  0  0  0
    2.4485   -1.7474   -4.8959 H   0  0  0  0  0  0
   -0.3571    1.7290   -3.8358 H   0  0  0  0  0  0
    1.4468    1.1079    0.0406 H   0  0  0  0  0  0
    5.9515   -2.3960   -1.4344 H   0  0  0  0  0  0
    4.6661   -0.6923   -5.1677 H   0  0  0  0  0  0
    6.4223   -1.0117   -3.4415 H   0  0  0  0  0  0
   -6.2029   -6.0409   -1.4881 H   0  0  0  0  0  0
   -5.8070   -4.3832   -1.9602 H   0  0  0  0  0  0
   -5.2375   -5.0558   -0.3812 H   0  0  0  0  0  0
    1.3853    4.6228   -1.0371 H   0  0  0  0  0  0
    2.0231    3.1450   -0.3583 H   0  0  0  0  0  0
   -0.2860    2.7655    0.7140 H   0  0  0  0  0  0
   -0.8145    4.3057    0.0895 H   0  0  0  0  0  0
    1.2012    6.1608    0.5504 H   0  0  0  0  0  0
    1.5540    6.1840    2.2687 H   0  0  0  0  0  0
    0.2579    4.4058    3.7420 H   0  0  0  0  0  0
   -0.8135    3.3190    2.8683 H   0  0  0  0  0  0
   -1.0844    6.7105    0.9213 H   0  0  0  0  0  0
   -0.4111    7.4251    2.3949 H   0  0  0  0  0  0
   -1.5944    5.8408    3.6304 H   0  0  0  0  0  0
   -2.1828    5.1295    2.1195 H   0  0  0  0  0  0
  1  2  1  0  0  0
  1  3  2  0  0  0
  1  4  1  0  0  0
  2  5  2  0  0  0
  2  6  1  0  0  0
  3  7  1  0  0  0
  3  8  1  0  0  0
  4  9  2  0  0  0
  4 10  1  0  0  0
  5 11  1  0  0  0
  5 12  1  0  0  0
  6 13  2  0  0  0
  6 33  1  0  0  0
  7 14  2  0  0  0
  7 15  1  0  0  0
  8 11  1  0  0  0
  8 34  1  0  0  0
  8 35  1  0  0  0
  9 16  1  0  0  0
  9 36  1  0  0  0
 10 17  2  0  0  0
 10 37  1  0  0  0
 11 38  1  0  0  0
 11 39  1  0  0  0
 12 18  2  0  0  0
 12 40  1  0  0  0
 13 18  1  0  0  0
 13 41  1  0  0  0
 14 19  1  0  0  0
 14 42  1  0  0  0
 15 20  2  0  0  0
 15 43  1  0  0  0
 16 21  2  0  0  0
 16 44  1  0  0  0
 17 21  1  0  0  0
 17 45  1  0  0  0
 18 22  1  0  0  0
 19 23  2  0  0  0
 19 46  1  0  0  0
 20 23  1  0  0  0
 20 47  1  0  0  0
 21 24  1  0  0  0
 22 25  1  0  0  0
 23 48  1  0  0  0
 24 26  1  0  0  0
 25 49  1  0  0  0
 25 50  1  0  0  0
 25 51  1  0  0  0
 26 27  1  0  0  0
 26 52  1  0  0  0
 26 53  1  0  0  0
 27 28  1  0  0  0
 27 54  1  0  0  0
 27 55  1  0  0  0
 28 29  1  0  0  0
 28 30  1  0  0  0
 29 31  1  0  0  0
 29 56  1  0  0  0
 29 57  1  0  0  0
 30 32  1  0  0  0
 30 58  1  0  0  0
 30 59  1  0  0  0
 31 32  1  0  0  0
 31 60  1  0  0  0
 31 61  1  0  0  0
 32 62  1  0  0  0
 32 63  1  0  0  0
M  END
>  <Name>
tox-478

>  <substance>
Nafoxidine

>  <CASRN>
1845-11-0

>  <from_NCI>
1

>  <RBA>
17.000000

>  <method>
hERa,MCF-7 cytosol,RUC

>  <chemical_class>
Triphenylethylene; Stilbene

>  <set>
2

$$$$
tox-479
  Cerius2 12190218273D 1   1.00000                          
 Structure written by MMmdl.
 32 34  0  0  0  0  0  0  0  0999 V2000
   -1.5228    1.7485    0.3526 C   0  0  0  0  0  0
   -1.5714    0.3885   -0.0104 C   0  0  0  0  0  0
   -0.1415    2.3140    0.6096 C   0  0  0  0  0  0
   -2.7268    2.5066    0.4966 C   0  0  0  0  0  0
   -0.4706   -0.4141   -0.1912 O   0  0  0  0  0  0
   -2.7965   -0.2647   -0.1962 C   0  0  0  0  0  0
    1.0076    1.3424    0.5471 C   0  0  0  0  0  0
    0.0777    3.4885    0.9113 O   0  0  0  0  0  0
   -3.9235    1.7616    0.2676 C   0  0  0  0  0  0
   -2.8120    3.7441    0.8068 O   0  0  0  0  0  0
    0.7083    0.3264   -0.5358 C   0  0  0  0  0  0
   -4.0254    0.3898   -0.0704 C   0  0  0  0  0  0
    1.8581   -0.6500   -0.7032 C   0  0  0  0  0  0
   -5.1405   -0.1957   -0.2469 O   0  0  0  0  0  0
    2.1177   -1.6528    0.2339 C   0  0  0  0  0  0
    2.7167   -0.5513   -1.7998 C   0  0  0  0  0  0
    3.2023   -2.5318    0.0646 C   0  0  0  0  0  0
    3.7957   -1.4409   -1.9500 C   0  0  0  0  0  0
    4.0852   -2.4661   -1.0298 C   0  0  0  0  0  0
    5.0636   -3.2654   -1.1745 O   0  0  0  0  0  0
   -2.7757   -1.3251   -0.4607 H   0  0  0  0  0  0
    1.1112    0.8841    1.5375 H   0  0  0  0  0  0
    1.9259    1.8936    0.3147 H   0  0  0  0  0  0
   -4.8720    2.3105    0.3713 H   0  0  0  0  0  0
    0.5240    0.8208   -1.5010 H   0  0  0  0  0  0
    1.4804   -1.7681    1.1103 H   0  0  0  0  0  0
    2.5646    0.2182   -2.5564 H   0  0  0  0  0  0
    3.3508   -3.2970    0.8324 H   0  0  0  0  0  0
    4.4308   -1.3126   -2.8316 H   0  0  0  0  0  0
   -3.6299    3.9741    0.8324 H   0  0  0  0  0  0
   -5.7736    0.3590   -0.1285 H   0  0  0  0  0  0
    5.4822   -3.0744   -1.8892 H   0  0  0  0  0  0
  1  2  2  0  0  0
  1  3  1  0  0  0
  1  4  1  0  0  0
  2  5  1  0  0  0
  2  6  1  0  0  0
  3  7  1  0  0  0
  3  8  2  0  0  0
  4  9  2  0  0  0
  4 10  1  0  0  0
  5 11  1  0  0  0
  6 12  2  0  0  0
  6 21  1  0  0  0
  7 11  1  0  0  0
  7 22  1  0  0  0
  7 23  1  0  0  0
  9 12  1  0  0  0
  9 24  1  0  0  0
 10 30  1  0  0  0
 11 13  1  0  0  0
 11 25  1  0  0  0
 12 14  1  0  0  0
 13 15  2  0  0  0
 13 16  1  0  0  0
 14 31  1  0  0  0
 15 17  1  0  0  0
 15 26  1  0  0  0
 16 18  2  0  0  0
 16 27  1  0  0  0
 17 19  2  0  0  0
 17 28  1  0  0  0
 18 19  1  0  0  0
 18 29  1  0  0  0
 19 20  1  0  0  0
 20 32  1  0  0  0
M  END
>  <Name>
tox-479

>  <substance>
Naringenin

>  <CASRN>
480-41-1

>  <from_NCI>
1

>  <RBA>
0.004000

>  <method>
GST-hERadef,GST-mERadef,hERa,RUC

>  <chemical_class>
Flavanone

>  <set>
0

$$$$
tox-480
  Cerius2 12190218273D 1   1.00000                          
 Structure written by MMmdl.
 73 77  0  0  0  0  0  0  0  0999 V2000
   -0.2081    2.1743    1.3601 C   0  0  0  0  0  0
   -0.4941    3.4179    1.9780 C   0  0  0  0  0  0
    1.0412    1.6071    1.2846 O   0  0  0  0  0  0
   -1.2203    1.4013    0.7956 C   0  0  0  0  0  0
    0.6864    4.1184    2.6200 C   0  0  0  0  0  0
   -1.8344    3.9411    2.0222 C   0  0  0  0  0  0
    2.1034    2.5664    1.3739 C   0  0  0  0  0  0
   -2.5154    1.8867    0.7988 C   0  0  0  0  0  0
    1.9805    3.3518    2.6631 C   0  0  0  0  0  0
    0.6295    5.2354    3.1370 O   0  0  0  0  0  0
   -2.8080    3.1112    1.4091 C   0  0  0  0  0  0
   -2.2012    5.0416    2.5585 O   0  0  0  0  0  0
    3.4264    1.8254    1.3139 C   0  0  0  0  0  0
   -3.5504    1.1441    0.3010 O   0  0  0  0  0  0
    3.6793    0.7025    2.1055 C   0  0  0  0  0  0
    4.4523    2.2725    0.4790 C   0  0  0  0  0  0
   -3.5706    1.1209   -1.1454 C   0  0  0  0  0  0
    4.9241    0.0503    2.0518 C   0  0  0  0  0  0
    5.6899    1.6050    0.4406 C   0  0  0  0  0  0
   -4.1996   -0.2217   -1.5975 C   0  0  0  0  0  0
   -4.3738    2.2107   -1.5992 O   0  0  0  0  0  0
    5.9803    0.4701    1.2214 C   0  0  0  0  0  0
   -3.3024   -1.2878   -1.1875 O   0  0  0  0  0  0
   -4.3670   -0.2649   -3.1706 C   0  0  0  0  0  0
   -4.3035    2.3751   -3.0261 C   0  0  0  0  0  0
    7.1035   -0.1249    1.1808 O   0  0  0  0  0  0
   -3.9705   -2.3426   -0.4682 C   0  0  0  0  0  0
   -4.9704    1.1100   -3.7298 C   0  0  0  0  0  0
   -5.2244   -1.2486   -3.4742 O   0  0  0  0  0  0
   -5.0664    3.7397   -3.3422 C   0  0  0  0  0  0
   -2.9510   -3.5225   -0.2060 C   0  0  0  0  0  0
   -4.3798   -1.8072    0.7930 O   0  0  0  0  0  0
   -4.6950    1.1623   -5.0379 O   0  0  0  0  0  0
   -4.3162    4.7704   -2.9576 O   0  0  0  0  0  0
   -3.6256   -4.6901    0.6707 C   0  0  0  0  0  0
   -2.4173   -4.0171   -1.3308 O   0  0  0  0  0  0
   -5.1428   -2.6969    1.6150 C   0  0  0  0  0  0
   -4.4168   -4.0743    1.9216 C   0  0  0  0  0  0
   -4.5115   -5.4115   -0.0216 O   0  0  0  0  0  0
   -6.5698   -2.8426    1.0624 C   0  0  0  0  0  0
   -3.5202   -3.8655    2.8912 O   0  0  0  0  0  0
   -0.9936    0.4317    0.3597 H   0  0  0  0  0  0
    2.0300    3.2291    0.4992 H   0  0  0  0  0  0
    1.9588    2.7084    3.5504 H   0  0  0  0  0  0
    2.8097    4.0616    2.7622 H   0  0  0  0  0  0
   -3.8544    3.4319    1.4068 H   0  0  0  0  0  0
    2.9131    0.3168    2.7775 H   0  0  0  0  0  0
    4.3110    3.1482   -0.1542 H   0  0  0  0  0  0
   -2.5498    1.2030   -1.5455 H   0  0  0  0  0  0
    5.0590   -0.8237    2.6961 H   0  0  0  0  0  0
    6.4529    2.0043   -0.2344 H   0  0  0  0  0  0
   -5.1775   -0.3208   -1.1021 H   0  0  0  0  0  0
   -3.3314   -0.3367   -3.5469 H   0  0  0  0  0  0
   -3.2461    2.4634   -3.3238 H   0  0  0  0  0  0
   -4.8311   -2.6854   -1.0534 H   0  0  0  0  0  0
   -6.0191    1.1397   -3.3874 H   0  0  0  0  0  0
   -6.0552    3.6248   -2.8680 H   0  0  0  0  0  0
   -5.3291    3.6966   -4.4099 H   0  0  0  0  0  0
   -2.2331   -3.0658    0.4981 H   0  0  0  0  0  0
   -2.7637   -5.2536    1.0756 H   0  0  0  0  0  0
   -5.2740   -2.1571    2.5646 H   0  0  0  0  0  0
   -5.2332   -4.7718    2.1786 H   0  0  0  0  0  0
   -7.2096   -3.3724    1.7749 H   0  0  0  0  0  0
   -6.5921   -3.3882    0.1155 H   0  0  0  0  0  0
   -7.0041   -1.8557    0.8689 H   0  0  0  0  0  0
   -3.0399    5.1390    2.4602 H   0  0  0  0  0  0
    7.6128    0.2688    0.6257 H   0  0  0  0  0  0
   -5.3260   -1.2858   -4.3173 H   0  0  0  0  0  0
   -5.0041    1.8839   -5.3639 H   0  0  0  0  0  0
   -4.7243    5.4966   -3.1268 H   0  0  0  0  0  0
   -1.8790   -4.6456   -1.1365 H   0  0  0  0  0  0
   -4.8405   -6.0136    0.4801 H   0  0  0  0  0  0
   -3.9100   -3.5377    3.5717 H   0  0  0  0  0  0
  1  2  2  0  0  0
  1  3  1  0  0  0
  1  4  1  0  0  0
  2  5  1  0  0  0
  2  6  1  0  0  0
  3  7  1  0  0  0
  4  8  2  0  0  0
  4 42  1  0  0  0
  5  9  1  0  0  0
  5 10  2  0  0  0
  6 11  2  0  0  0
  6 12  1  0  0  0
  7  9  1  0  0  0
  7 13  1  0  0  0
  7 43  1  0  0  0
  8 11  1  0  0  0
  8 14  1  0  0  0
  9 44  1  0  0  0
  9 45  1  0  0  0
 11 46  1  0  0  0
 12 66  1  0  0  0
 13 15  2  0  0  0
 13 16  1  0  0  0
 14 17  1  0  0  0
 15 18  1  0  0  0
 15 47  1  0  0  0
 16 19  2  0  0  0
 16 48  1  0  0  0
 17 20  1  0  0  0
 17 21  1  0  0  0
 17 49  1  0  0  0
 18 22  2  0  0  0
 18 50  1  0  0  0
 19 22  1  0  0  0
 19 51  1  0  0  0
 20 23  1  0  0  0
 20 24  1  0  0  0
 20 52  1  0  0  0
 21 25  1  0  0  0
 22 26  1  0  0  0
 23 27  1  0  0  0
 24 28  1  0  0  0
 24 29  1  0  0  0
 24 53  1  0  0  0
 25 28  1  0  0  0
 25 30  1  0  0  0
 25 54  1  0  0  0
 26 67  1  0  0  0
 27 31  1  0  0  0
 27 32  1  0  0  0
 27 55  1  0  0  0
 28 33  1  0  0  0
 28 56  1  0  0  0
 29 68  1  0  0  0
 30 34  1  0  0  0
 30 57  1  0  0  0
 30 58  1  0  0  0
 31 35  1  0  0  0
 31 36  1  0  0  0
 31 59  1  0  0  0
 32 37  1  0  0  0
 33 69  1  0  0  0
 34 70  1  0  0  0
 35 38  1  0  0  0
 35 39  1  0  0  0
 35 60  1  0  0  0
 36 71  1  0  0  0
 37 38  1  0  0  0
 37 40  1  0  0  0
 37 61  1  0  0  0
 38 41  1  0  0  0
 38 62  1  0  0  0
 39 72  1  0  0  0
 40 63  1  0  0  0
 40 64  1  0  0  0
 40 65  1  0  0  0
 41 73  1  0  0  0
M  END
>  <Name>
tox-480

>  <substance>
Naringin

>  <CASRN>
10236-47-2

>  <from_NCI>
1

>  <RBA>
0.000000

>  <method>
RUC

>  <chemical_class>
Flavanone

>  <set>
1

$$$$
tox-481
  Cerius2 12190218273D 1   1.00000                          
 Structure written by MMmdl.
 42 41  0  0  0  0  0  0  0  0999 V2000
    0.0366   -0.2249   -1.7952 C   0  0  0  0  0  0
   -1.0808    0.5299   -1.8005 C   0  0  0  0  0  0
    1.4042    0.4377   -1.8120 C   0  0  0  0  0  0
    0.0578   -1.7310   -1.7949 C   0  0  0  0  0  0
   -2.5128    0.0651   -1.8335 C   0  0  0  0  0  0
    2.0976    0.4062   -0.4450 C   0  0  0  0  0  0
   -3.1700    0.1931   -0.4550 C   0  0  0  0  0  0
    3.4229    1.1214   -0.4834 C   0  0  0  0  0  0
   -4.6840   -0.1175   -0.4600 C   0  0  0  0  0  0
    4.6534    0.5734   -0.5169 C   0  0  0  0  0  0
   -5.2762    0.2692    0.8909 C   0  0  0  0  0  0
   -4.9723   -1.5574   -0.9012 C   0  0  0  0  0  0
    4.9422   -0.9022   -0.5709 C   0  0  0  0  0  0
    5.8828    1.4455   -0.5174 C   0  0  0  0  0  0
   -5.8433   -0.5209    1.8217 C   0  0  0  0  0  0
   -6.3455   -0.2267    2.9331 O   0  0  0  0  0  0
   -0.9733    1.6165   -1.7916 H   0  0  0  0  0  0
    1.3123    1.4800   -2.1468 H   0  0  0  0  0  0
    2.0303   -0.0590   -2.5650 H   0  0  0  0  0  0
    0.5224   -2.0996   -2.7153 H   0  0  0  0  0  0
   -0.9355   -2.1791   -1.7219 H   0  0  0  0  0  0
    0.6343   -2.1070   -0.9441 H   0  0  0  0  0  0
   -2.5845   -0.9599   -2.2049 H   0  0  0  0  0  0
   -3.0525    0.6866   -2.5588 H   0  0  0  0  0  0
    2.2126   -0.6224   -0.0907 H   0  0  0  0  0  0
    1.4666    0.9057    0.3017 H   0  0  0  0  0  0
   -3.0145    1.2159   -0.0839 H   0  0  0  0  0  0
   -2.6604   -0.4729    0.2549 H   0  0  0  0  0  0
    3.3364    2.2096   -0.4655 H   0  0  0  0  0  0
   -5.1637    0.5415   -1.1969 H   0  0  0  0  0  0
   -5.2238    1.3433    1.0931 H   0  0  0  0  0  0
   -6.0431   -1.7818   -0.8400 H   0  0  0  0  0  0
   -4.4321   -2.2830   -0.2835 H   0  0  0  0  0  0
   -4.6783   -1.7183   -1.9430 H   0  0  0  0  0  0
    5.4327   -1.2235    0.3535 H   0  0  0  0  0  0
    5.6100   -1.1237   -1.4105 H   0  0  0  0  0  0
    4.0480   -1.5142   -0.7090 H   0  0  0  0  0  0
    6.4665    1.2781   -1.4284 H   0  0  0  0  0  0
    6.5120    1.2123    0.3478 H   0  0  0  0  0  0
    5.6364    2.5115   -0.4714 H   0  0  0  0  0  0
   -5.8530   -1.5842    1.5470 H   0  0  0  0  0  0
   -6.6303   -0.9327    3.3112 H   0  0  0  0  0  0
  1  2  2  0  0  0
  1  3  1  0  0  0
  1  4  1  0  0  0
  2  5  1  0  0  0
  2 17  1  0  0  0
  3  6  1  0  0  0
  3 18  1  0  0  0
  3 19  1  0  0  0
  4 20  1  0  0  0
  4 21  1  0  0  0
  4 22  1  0  0  0
  5  7  1  0  0  0
  5 23  1  0  0  0
  5 24  1  0  0  0
  6  8  1  0  0  0
  6 25  1  0  0  0
  6 26  1  0  0  0
  7  9  1  0  0  0
  7 27  1  0  0  0
  7 28  1  0  0  0
  8 10  2  0  0  0
  8 29  1  0  0  0
  9 11  1  0  0  0
  9 12  1  0  0  0
  9 30  1  0  0  0
 10 13  1  0  0  0
 10 14  1  0  0  0
 11 15  2  0  0  0
 11 31  1  0  0  0
 12 32  1  0  0  0
 12 33  1  0  0  0
 12 34  1  0  0  0
 13 35  1  0  0  0
 13 36  1  0  0  0
 13 37  1  0  0  0
 14 38  1  0  0  0
 14 39  1  0  0  0
 14 40  1  0  0  0
 15 16  1  0  0  0
 15 41  1  0  0  0
 16 42  1  0  0  0
M  END
>  <Name>
tox-481

>  <substance>
Nerolidol

>  <CASRN>
7212-44-4

>  <from_NCI>
1

>  <RBA>
0.000000

>  <method>
RUC

>  <chemical_class>
Terpene

>  <set>
1

$$$$
tox-482
  Cerius2 12190218273D 1   1.00000                          
 Structure written by MMmdl.
 47 50  0  0  0  0  0  0  0  0999 V2000
    2.6673    1.7297    0.1912 C   0  0  0  0  0  0
    2.5905    0.1893    0.1629 C   0  0  0  0  0  0
    1.7590    2.2705   -0.9205 C   0  0  0  0  0  0
    4.1786    1.9082   -0.0585 C   0  0  0  0  0  0
    1.1797   -0.3245    0.4514 C   0  0  0  0  0  0
    3.7419   -0.2410    1.0678 C   0  0  0  0  0  0
    0.3142    1.7512   -0.7860 C   0  0  0  0  0  0
    4.6535    3.2033    0.2746 O   0  0  0  0  0  0
    4.8303    0.8189    0.8162 C   0  0  0  0  0  0
    0.2176    0.2072   -0.6543 C   0  0  0  0  0  0
    1.1058   -1.8521    0.4820 C   0  0  0  0  0  0
   -1.1981   -0.3419   -0.4686 C   0  0  0  0  0  0
   -0.2878   -2.2935    0.9182 C   0  0  0  0  0  0
   -1.4117   -1.5434    0.2400 C   0  0  0  0  0  0
   -2.3082    0.2825   -1.0708 C   0  0  0  0  0  0
   -2.7145   -2.0580    0.3780 C   0  0  0  0  0  0
   -3.6065   -0.2451   -0.9345 C   0  0  0  0  0  0
   -3.8096   -1.4187   -0.2018 C   0  0  0  0  0  0
   -4.7235    0.4578   -1.5772 N   0  0  0  0  0  0
   -5.0159   -2.0323    0.0110 O   0  0  0  0  0  0
   -4.4865    1.4946   -2.2254 O   0  0  0  0  0  0
   -5.8678   -0.0183   -1.4434 O   0  0  0  0  0  0
    2.2628    2.3747    1.5415 C   0  0  0  0  0  0
    2.8553   -0.1566   -0.8504 H   0  0  0  0  0  0
    2.1459    1.9637   -1.9011 H   0  0  0  0  0  0
    1.7577    3.3671   -0.9205 H   0  0  0  0  0  0
    4.4184    1.7238   -1.1134 H   0  0  0  0  0  0
    0.8503    0.0408    1.4326 H   0  0  0  0  0  0
    4.1022   -1.2455    0.8236 H   0  0  0  0  0  0
    3.4457   -0.2420    2.1226 H   0  0  0  0  0  0
   -0.2300    2.0901   -1.6750 H   0  0  0  0  0  0
   -0.1766    2.2275    0.0712 H   0  0  0  0  0  0
    5.6256    3.1797    0.1477 H   0  0  0  0  0  0
    5.2072    1.2218    1.7631 H   0  0  0  0  0  0
    5.6878    0.3810    0.2932 H   0  0  0  0  0  0
    0.5569   -0.2060   -1.6170 H   0  0  0  0  0  0
    1.8424   -2.2722    1.1757 H   0  0  0  0  0  0
    1.3335   -2.2601   -0.5113 H   0  0  0  0  0  0
   -0.3885   -2.1412    2.0005 H   0  0  0  0  0  0
   -0.3907   -3.3684    0.7261 H   0  0  0  0  0  0
   -2.1645    1.1845   -1.6603 H   0  0  0  0  0  0
   -2.8742   -2.9743    0.9464 H   0  0  0  0  0  0
   -5.7240   -1.5137   -0.4342 H   0  0  0  0  0  0
    2.3475    3.4664    1.4869 H   0  0  0  0  0  0
    2.8979    2.0449    2.3696 H   0  0  0  0  0  0
    1.2305    2.1529    1.8246 H   0  0  0  0  0  0
   -6.4279    0.4702   -1.8558 H   0  0  0  0  0  0
  1  2  1  0  0  0
  1  3  1  0  0  0
  1  4  1  0  0  0
  1 23  1  0  0  0
  2  5  1  0  0  0
  2  6  1  0  0  0
  2 24  1  0  0  0
  3  7  1  0  0  0
  3 25  1  0  0  0
  3 26  1  0  0  0
  4  8  1  0  0  0
  4  9  1  0  0  0
  4 27  1  0  0  0
  5 10  1  0  0  0
  5 11  1  0  0  0
  5 28  1  0  0  0
  6  9  1  0  0  0
  6 29  1  0  0  0
  6 30  1  0  0  0
  7 10  1  0  0  0
  7 31  1  0  0  0
  7 32  1  0  0  0
  8 33  1  0  0  0
  9 34  1  0  0  0
  9 35  1  0  0  0
 10 12  1  0  0  0
 10 36  1  0  0  0
 11 13  1  0  0  0
 11 37  1  0  0  0
 11 38  1  0  0  0
 12 14  2  0  0  0
 12 15  1  0  0  0
 13 14  1  0  0  0
 13 39  1  0  0  0
 13 40  1  0  0  0
 14 16  1  0  0  0
 15 17  2  0  0  0
 15 41  1  0  0  0
 16 18  2  0  0  0
 16 42  1  0  0  0
 17 18  1  0  0  0
 17 19  1  0  0  0
 18 20  1  0  0  0
 19 21  2  0  0  0
 19 22  1  0  0  0
 20 43  1  0  0  0
 22 47  1  0  0  0
 23 44  1  0  0  0
 23 45  1  0  0  0
 23 46  1  0  0  0
M  END
>  <Name>
tox-482

>  <substance>
2-Nitroestratriene-3,17b-diol

>  <CASRN>
6298-51-7

>  <from_NCI>
1

>  <RBA>
1.000000

>  <method>
MCF-7 cytosol

>  <chemical_class>
Steroid, phenolic

>  <set>
1

$$$$
tox-483
  Cerius2 12190218273D 1   1.00000                          
 Structure written by MMmdl.
 47 50  0  0  0  0  0  0  0  0999 V2000
    2.6042    1.9314    0.0917 C   0  0  0  0  0  0
    2.5127    0.3918    0.0901 C   0  0  0  0  0  0
    1.6920    2.4607   -1.0219 C   0  0  0  0  0  0
    4.1149    2.0918   -0.1731 C   0  0  0  0  0  0
    1.0998   -0.1039    0.3992 C   0  0  0  0  0  0
    3.6676   -0.0341    0.9924 C   0  0  0  0  0  0
    0.2438    1.9577   -0.8657 C   0  0  0  0  0  0
    4.6043    3.3878    0.1342 O   0  0  0  0  0  0
    4.7637    1.0113    0.7145 C   0  0  0  0  0  0
    0.1318    0.4169   -0.7038 C   0  0  0  0  0  0
    1.0118   -1.6282    0.4474 C   0  0  0  0  0  0
   -1.2885   -0.1129   -0.4898 C   0  0  0  0  0  0
   -0.3810   -2.0534    0.9037 C   0  0  0  0  0  0
   -1.5180   -1.3027    0.2426 C   0  0  0  0  0  0
   -2.3903    0.5304   -1.0909 C   0  0  0  0  0  0
   -2.8524   -1.7543    0.3871 C   0  0  0  0  0  0
   -3.6976    0.0544   -0.9412 C   0  0  0  0  0  0
   -3.9345   -1.0897   -0.1932 C   0  0  0  0  0  0
   -5.2136   -1.5458   -0.0375 O   0  0  0  0  0  0
    2.2164    2.6027    1.4341 C   0  0  0  0  0  0
   -3.1303   -2.9437    1.1658 N   0  0  0  0  0  0
   -3.2434   -2.8111    2.3979 O   0  0  0  0  0  0
   -3.2151   -4.0253    0.5561 O   0  0  0  0  0  0
    2.7655    0.0266   -0.9196 H   0  0  0  0  0  0
    2.0676    2.1326   -2.0000 H   0  0  0  0  0  0
    1.7010    3.5571   -1.0418 H   0  0  0  0  0  0
    4.3443    1.8875   -1.2267 H   0  0  0  0  0  0
    0.7833    0.2773    1.3786 H   0  0  0  0  0  0
    4.0166   -1.0458    0.7620 H   0  0  0  0  0  0
    3.3803   -0.0148    2.0496 H   0  0  0  0  0  0
   -0.3038    2.2854   -1.7569 H   0  0  0  0  0  0
   -0.2351    2.4555   -0.0140 H   0  0  0  0  0  0
    5.5751    3.3529    0.0008 H   0  0  0  0  0  0
    5.1521    1.4263    1.6513 H   0  0  0  0  0  0
    5.6128    0.5567    0.1919 H   0  0  0  0  0  0
    0.4542   -0.0174   -1.6630 H   0  0  0  0  0  0
    1.7522   -2.0481    1.1374 H   0  0  0  0  0  0
    1.2250   -2.0500   -0.5434 H   0  0  0  0  0  0
   -0.4590   -1.8952    1.9870 H   0  0  0  0  0  0
   -0.4794   -3.1288    0.7156 H   0  0  0  0  0  0
   -2.2548    1.4224   -1.7002 H   0  0  0  0  0  0
   -4.5121    0.5944   -1.4195 H   0  0  0  0  0  0
   -5.8237   -0.9454   -0.5179 H   0  0  0  0  0  0
    2.3097    3.6925    1.3601 H   0  0  0  0  0  0
    2.8557    2.2816    2.2624 H   0  0  0  0  0  0
    1.1847    2.3945    1.7295 H   0  0  0  0  0  0
   -3.3793   -4.6499    1.1087 H   0  0  0  0  0  0
  1  2  1  0  0  0
  1  3  1  0  0  0
  1  4  1  0  0  0
  1 20  1  0  0  0
  2  5  1  0  0  0
  2  6  1  0  0  0
  2 24  1  0  0  0
  3  7  1  0  0  0
  3 25  1  0  0  0
  3 26  1  0  0  0
  4  8  1  0  0  0
  4  9  1  0  0  0
  4 27  1  0  0  0
  5 10  1  0  0  0
  5 11  1  0  0  0
  5 28  1  0  0  0
  6  9  1  0  0  0
  6 29  1  0  0  0
  6 30  1  0  0  0
  7 10  1  0  0  0
  7 31  1  0  0  0
  7 32  1  0  0  0
  8 33  1  0  0  0
  9 34  1  0  0  0
  9 35  1  0  0  0
 10 12  1  0  0  0
 10 36  1  0  0  0
 11 13  1  0  0  0
 11 37  1  0  0  0
 11 38  1  0  0  0
 12 14  2  0  0  0
 12 15  1  0  0  0
 13 14  1  0  0  0
 13 39  1  0  0  0
 13 40  1  0  0  0
 14 16  1  0  0  0
 15 17  2  0  0  0
 15 41  1  0  0  0
 16 18  2  0  0  0
 16 21  1  0  0  0
 17 18  1  0  0  0
 17 42  1  0  0  0
 18 19  1  0  0  0
 19 43  1  0  0  0
 20 44  1  0  0  0
 20 45  1  0  0  0
 20 46  1  0  0  0
 21 22  2  0  0  0
 21 23  1  0  0  0
 23 47  1  0  0  0
M  END
>  <Name>
tox-483

>  <substance>
4-Nitroestratriene-3,17b-diol

>  <CASRN>
6936-94-3

>  <from_NCI>
1

>  <RBA>
13.000000

>  <method>
MCF-7 cytosol

>  <chemical_class>
Steroid, phenolic

>  <set>
0

$$$$
tox-484
  Cerius2 12190218273D 1   1.00000                          
 Structure written by MMmdl.
 45 48  0  0  0  0  0  0  0  0999 V2000
    1.2067    1.8069   -2.3494 C   0  0  0  0  0  0
    1.1868    0.2655   -2.2581 C   0  0  0  0  0  0
   -0.1924    2.3101   -2.0087 C   0  0  0  0  0  0
    1.6499    1.9344   -3.7990 C   0  0  0  0  0  0
    0.9241   -0.2030   -0.8271 C   0  0  0  0  0  0
    2.4565   -0.1672   -2.9826 C   0  0  0  0  0  0
   -0.6401    1.8271   -0.6150 C   0  0  0  0  0  0
    1.4214    2.9000   -4.5232 O   0  0  0  0  0  0
    2.4494    0.7180   -4.2384 C   0  0  0  0  0  0
   -0.4921    0.2953   -0.4004 C   0  0  0  0  0  0
    0.9798   -1.7241   -0.6802 C   0  0  0  0  0  0
   -0.8569   -0.2040    0.9982 C   0  0  0  0  0  0
    0.8446   -2.1075    0.7904 C   0  0  0  0  0  0
   -0.2469   -1.3623    1.5249 C   0  0  0  0  0  0
   -1.8674    0.4201    1.7560 C   0  0  0  0  0  0
   -0.6133   -1.8340    2.7993 C   0  0  0  0  0  0
   -2.2331   -0.0647    3.0263 C   0  0  0  0  0  0
   -1.5985   -1.1948    3.5512 C   0  0  0  0  0  0
   -3.2865    0.6356    3.7712 N   0  0  0  0  0  0
   -1.8549   -1.7644    4.7705 O   0  0  0  0  0  0
   -3.8254    1.6323    3.2541 O   0  0  0  0  0  0
   -3.5958    0.1977    4.8966 O   0  0  0  0  0  0
    2.2743    2.5186   -1.4966 C   0  0  0  0  0  0
    0.3532   -0.1138   -2.8746 H   0  0  0  0  0  0
   -0.9122    1.9579   -2.7593 H   0  0  0  0  0  0
   -0.2309    3.4056   -2.0484 H   0  0  0  0  0  0
    1.6823    0.2215   -0.1566 H   0  0  0  0  0  0
    2.4472   -1.2278   -3.2523 H   0  0  0  0  0  0
    3.3507    0.0148   -2.3769 H   0  0  0  0  0  0
   -1.6874    2.1266   -0.4929 H   0  0  0  0  0  0
   -0.0767    2.3623    0.1593 H   0  0  0  0  0  0
    3.4611    1.0006   -4.5370 H   0  0  0  0  0  0
    1.9218    0.2280   -5.0618 H   0  0  0  0  0  0
   -1.2263   -0.1799   -1.0697 H   0  0  0  0  0  0
    1.9242   -2.1263   -1.0631 H   0  0  0  0  0  0
    0.1744   -2.1887   -1.2635 H   0  0  0  0  0  0
    1.7935   -1.9006    1.3019 H   0  0  0  0  0  0
    0.6644   -3.1874    0.8555 H   0  0  0  0  0  0
   -2.3839    1.2880    1.3535 H   0  0  0  0  0  0
   -0.1214   -2.7162    3.2091 H   0  0  0  0  0  0
   -2.5604   -1.2499    5.2245 H   0  0  0  0  0  0
    2.2364    3.6009   -1.6709 H   0  0  0  0  0  0
    3.2915    2.2019   -1.7506 H   0  0  0  0  0  0
    2.1383    2.3585   -0.4240 H   0  0  0  0  0  0
   -4.2116    0.6802    5.2290 H   0  0  0  0  0  0
  1  2  1  0  0  0
  1  3  1  0  0  0
  1  4  1  0  0  0
  1 23  1  0  0  0
  2  5  1  0  0  0
  2  6  1  0  0  0
  2 24  1  0  0  0
  3  7  1  0  0  0
  3 25  1  0  0  0
  3 26  1  0  0  0
  4  8  2  0  0  0
  4  9  1  0  0  0
  5 10  1  0  0  0
  5 11  1  0  0  0
  5 27  1  0  0  0
  6  9  1  0  0  0
  6 28  1  0  0  0
  6 29  1  0  0  0
  7 10  1  0  0  0
  7 30  1  0  0  0
  7 31  1  0  0  0
  9 32  1  0  0  0
  9 33  1  0  0  0
 10 12  1  0  0  0
 10 34  1  0  0  0
 11 13  1  0  0  0
 11 35  1  0  0  0
 11 36  1  0  0  0
 12 14  2  0  0  0
 12 15  1  0  0  0
 13 14  1  0  0  0
 13 37  1  0  0  0
 13 38  1  0  0  0
 14 16  1  0  0  0
 15 17  2  0  0  0
 15 39  1  0  0  0
 16 18  2  0  0  0
 16 40  1  0  0  0
 17 18  1  0  0  0
 17 19  1  0  0  0
 18 20  1  0  0  0
 19 21  2  0  0  0
 19 22  1  0  0  0
 20 41  1  0  0  0
 22 45  1  0  0  0
 23 42  1  0  0  0
 23 43  1  0  0  0
 23 44  1  0  0  0
M  END
>  <Name>
tox-484

>  <substance>
2-Nitroestratrien-3-ol-17-one

>  <CASRN>
5976-73-8

>  <from_NCI>
1

>  <RBA>
0.100000

>  <method>
MCF-7 cytosol

>  <chemical_class>
Steroid, phenolic

>  <set>
0

$$$$
tox-485
  Cerius2 12190218273D 1   1.00000                          
 Structure written by MMmdl.
 45 48  0  0  0  0  0  0  0  0999 V2000
    0.6104    2.0825   -2.5101 C   0  0  0  0  0  0
    0.6103    0.5410   -2.4226 C   0  0  0  0  0  0
   -0.7985    2.5649   -2.1811 C   0  0  0  0  0  0
    1.0648    2.2199   -3.9553 C   0  0  0  0  0  0
    0.3415    0.0652   -0.9951 C   0  0  0  0  0  0
    1.8921    0.1273   -3.1369 C   0  0  0  0  0  0
   -1.2512    2.0724   -0.7924 C   0  0  0  0  0  0
    0.8299    3.1843   -4.6791 O   0  0  0  0  0  0
    1.8842    1.0153   -4.3907 C   0  0  0  0  0  0
   -1.0825    0.5421   -0.5772 C   0  0  0  0  0  0
    0.4085   -1.4540   -0.8547 C   0  0  0  0  0  0
   -1.4475    0.0372    0.8207 C   0  0  0  0  0  0
    0.2665   -1.8470    0.6134 C   0  0  0  0  0  0
   -0.8295   -1.1164    1.3607 C   0  0  0  0  0  0
   -2.4689    0.6642    1.5639 C   0  0  0  0  0  0
   -1.2269   -1.5486    2.6494 C   0  0  0  0  0  0
   -2.8493    0.2078    2.8308 C   0  0  0  0  0  0
   -2.2225   -0.9001    3.3825 C   0  0  0  0  0  0
   -2.5869   -1.3369    4.6254 O   0  0  0  0  0  0
    1.6603    2.8064   -1.6458 C   0  0  0  0  0  0
   -0.5876   -2.7003    3.2523 N   0  0  0  0  0  0
   -1.1379   -3.8070    3.1070 O   0  0  0  0  0  0
    0.4835   -2.5125    3.8573 O   0  0  0  0  0  0
   -0.2126    0.1522   -3.0473 H   0  0  0  0  0  0
   -1.5066    2.2040   -2.9388 H   0  0  0  0  0  0
   -0.8524    3.6597   -2.2188 H   0  0  0  0  0  0
    1.0902    0.4948   -0.3170 H   0  0  0  0  0  0
    1.8996   -0.9327   -3.4091 H   0  0  0  0  0  0
    2.7784    0.3200   -2.5228 H   0  0  0  0  0  0
   -2.3040    2.3561   -0.6803 H   0  0  0  0  0  0
   -0.7031    2.6153   -0.0126 H   0  0  0  0  0  0
    2.8946    1.3121   -4.6798 H   0  0  0  0  0  0
    1.3703    0.5205   -5.2198 H   0  0  0  0  0  0
   -1.8067    0.0573   -1.2504 H   0  0  0  0  0  0
    1.3585   -1.8471   -1.2332 H   0  0  0  0  0  0
   -0.3888   -1.9232   -1.4455 H   0  0  0  0  0  0
    1.2157   -1.6413    1.1247 H   0  0  0  0  0  0
    0.0937   -2.9288    0.6535 H   0  0  0  0  0  0
   -3.0012    1.5275    1.1679 H   0  0  0  0  0  0
   -3.6380    0.7341    3.3647 H   0  0  0  0  0  0
   -3.2959   -0.7523    4.9704 H   0  0  0  0  0  0
    1.6085    3.8887   -1.8168 H   0  0  0  0  0  0
    2.6840    2.5050   -1.8919 H   0  0  0  0  0  0
    1.5173    2.6408   -0.5748 H   0  0  0  0  0  0
    0.7667   -3.2512    4.1681 H   0  0  0  0  0  0
  1  2  1  0  0  0
  1  3  1  0  0  0
  1  4  1  0  0  0
  1 20  1  0  0  0
  2  5  1  0  0  0
  2  6  1  0  0  0
  2 24  1  0  0  0
  3  7  1  0  0  0
  3 25  1  0  0  0
  3 26  1  0  0  0
  4  8  2  0  0  0
  4  9  1  0  0  0
  5 10  1  0  0  0
  5 11  1  0  0  0
  5 27  1  0  0  0
  6  9  1  0  0  0
  6 28  1  0  0  0
  6 29  1  0  0  0
  7 10  1  0  0  0
  7 30  1  0  0  0
  7 31  1  0  0  0
  9 32  1  0  0  0
  9 33  1  0  0  0
 10 12  1  0  0  0
 10 34  1  0  0  0
 11 13  1  0  0  0
 11 35  1  0  0  0
 11 36  1  0  0  0
 12 14  2  0  0  0
 12 15  1  0  0  0
 13 14  1  0  0  0
 13 37  1  0  0  0
 13 38  1  0  0  0
 14 16  1  0  0  0
 15 17  2  0  0  0
 15 39  1  0  0  0
 16 18  2  0  0  0
 16 21  1  0  0  0
 17 18  1  0  0  0
 17 40  1  0  0  0
 18 19  1  0  0  0
 19 41  1  0  0  0
 20 42  1  0  0  0
 20 43  1  0  0  0
 20 44  1  0  0  0
 21 22  2  0  0  0
 21 23  1  0  0  0
 23 45  1  0  0  0
M  END
>  <Name>
tox-485

>  <substance>
4-Nitroestratrien-3-ol-17-one

>  <CASRN>
5976-74-9

>  <from_NCI>
1

>  <RBA>
6.000000

>  <method>
MCF-7 cytosol

>  <chemical_class>
Steroid, phenolic

>  <set>
2

$$$$
tox-486
  Cerius2 12190218273D 1   1.00000                          
 Structure written by MMmdl.
 62 65  0  0  0  0  0  0  0  0999 V2000
    2.4004    1.4144   -1.0556 C   0  0  0  0  0  0
    3.5706    2.1086   -1.0253 C   0  0  0  0  0  0
    1.0675    2.0816   -1.0542 C   0  0  0  0  0  0
    2.4531   -0.0746   -1.0933 C   0  0  0  0  0  0
    4.9292    1.5309   -1.0787 C   0  0  0  0  0  0
    3.4730    3.5585   -0.9001 N   0  0  0  0  0  0
    0.2312    1.9615    0.0630 C   0  0  0  0  0  0
    0.6024    2.7773   -2.1763 C   0  0  0  0  0  0
    2.0939   -0.7600   -2.2606 C   0  0  0  0  0  0
    2.8096   -0.8116    0.0424 C   0  0  0  0  0  0
    5.4304    0.9899   -2.2724 C   0  0  0  0  0  0
    5.7371    1.5149    0.0683 C   0  0  0  0  0  0
    3.1687    4.0291    0.2108 O   0  0  0  0  0  0
    3.7429    4.2390   -1.9055 O   0  0  0  0  0  0
   -1.0517    2.5215    0.0591 C   0  0  0  0  0  0
   -0.6765    3.3423   -2.1739 C   0  0  0  0  0  0
    2.0938   -2.1598   -2.2952 C   0  0  0  0  0  0
    2.8106   -2.2084    0.0035 C   0  0  0  0  0  0
    6.7133    0.4396   -2.3152 C   0  0  0  0  0  0
    7.0194    0.9643    0.0217 C   0  0  0  0  0  0
   -1.5154    3.2025   -1.0656 C   0  0  0  0  0  0
    2.4465   -2.8902   -1.1601 C   0  0  0  0  0  0
    7.5054    0.4261   -1.1685 C   0  0  0  0  0  0
   -2.7499    3.7762   -1.1977 O   0  0  0  0  0  0
    2.4730   -4.2539   -1.0582 O   0  0  0  0  0  0
   -3.7533    3.3567   -0.2591 C   0  0  0  0  0  0
    2.0064   -4.9897   -2.1879 C   0  0  0  0  0  0
   -5.1079    3.9284   -0.7151 C   0  0  0  0  0  0
   -6.2601    3.4274    0.0669 N   0  0  0  0  0  0
   -6.3103    3.9965    1.4270 C   0  0  0  0  0  0
   -7.5339    3.8749   -0.5322 C   0  0  0  0  0  0
   -6.9801    5.3560    1.2942 C   0  0  0  0  0  0
   -7.7923    5.2729    0.0104 C   0  0  0  0  0  0
    0.5666    1.4224    0.9482 H   0  0  0  0  0  0
    1.2196    2.8736   -3.0680 H   0  0  0  0  0  0
    1.8061   -0.2110   -3.1564 H   0  0  0  0  0  0
    3.0785   -0.3095    0.9701 H   0  0  0  0  0  0
    4.8262    0.9925   -3.1789 H   0  0  0  0  0  0
    5.3727    1.9237    1.0104 H   0  0  0  0  0  0
   -1.6597    2.4035    0.9520 H   0  0  0  0  0  0
   -1.0243    3.8768   -3.0564 H   0  0  0  0  0  0
    1.8085   -2.6443   -3.2248 H   0  0  0  0  0  0
    3.0884   -2.7655    0.8968 H   0  0  0  0  0  0
    7.0946    0.0204   -3.2447 H   0  0  0  0  0  0
    7.6387    0.9525    0.9170 H   0  0  0  0  0  0
    8.5041   -0.0060   -1.2022 H   0  0  0  0  0  0
   -3.4982    3.7382    0.7347 H   0  0  0  0  0  0
   -3.8116    2.2608   -0.2386 H   0  0  0  0  0  0
    2.0491   -6.0530   -1.9327 H   0  0  0  0  0  0
    2.6538   -4.8274   -3.0557 H   0  0  0  0  0  0
    0.9638   -4.7439   -2.4162 H   0  0  0  0  0  0
   -5.2398    3.6346   -1.7656 H   0  0  0  0  0  0
   -5.0533    5.0247   -0.7228 H   0  0  0  0  0  0
   -5.3393    4.0584    1.9261 H   0  0  0  0  0  0
   -6.9359    3.3419    2.0475 H   0  0  0  0  0  0
   -8.3290    3.1984   -0.1935 H   0  0  0  0  0  0
   -7.5397    3.8411   -1.6272 H   0  0  0  0  0  0
   -6.2315    6.1523    1.2106 H   0  0  0  0  0  0
   -7.6119    5.5787    2.1601 H   0  0  0  0  0  0
   -8.8584    5.4398    0.1946 H   0  0  0  0  0  0
   -7.4493    6.0363   -0.6973 H   0  0  0  0  0  0
    3.6539    5.0640   -1.7214 H   0  0  0  0  0  0
  1  2  2  0  0  0
  1  3  1  0  0  0
  1  4  1  0  0  0
  2  5  1  0  0  0
  2  6  1  0  0  0
  3  7  2  0  0  0
  3  8  1  0  0  0
  4  9  2  0  0  0
  4 10  1  0  0  0
  5 11  2  0  0  0
  5 12  1  0  0  0
  6 13  2  0  0  0
  6 14  1  0  0  0
  7 15  1  0  0  0
  7 34  1  0  0  0
  8 16  2  0  0  0
  8 35  1  0  0  0
  9 17  1  0  0  0
  9 36  1  0  0  0
 10 18  2  0  0  0
 10 37  1  0  0  0
 11 19  1  0  0  0
 11 38  1  0  0  0
 12 20  2  0  0  0
 12 39  1  0  0  0
 14 62  1  0  0  0
 15 21  2  0  0  0
 15 40  1  0  0  0
 16 21  1  0  0  0
 16 41  1  0  0  0
 17 22  2  0  0  0
 17 42  1  0  0  0
 18 22  1  0  0  0
 18 43  1  0  0  0
 19 23  2  0  0  0
 19 44  1  0  0  0
 20 23  1  0  0  0
 20 45  1  0  0  0
 21 24  1  0  0  0
 22 25  1  0  0  0
 23 46  1  0  0  0
 24 26  1  0  0  0
 25 27  1  0  0  0
 26 28  1  0  0  0
 26 47  1  0  0  0
 26 48  1  0  0  0
 27 49  1  0  0  0
 27 50  1  0  0  0
 27 51  1  0  0  0
 28 29  1  0  0  0
 28 52  1  0  0  0
 28 53  1  0  0  0
 29 30  1  0  0  0
 29 31  1  0  0  0
 30 32  1  0  0  0
 30 54  1  0  0  0
 30 55  1  0  0  0
 31 33  1  0  0  0
 31 56  1  0  0  0
 31 57  1  0  0  0
 32 33  1  0  0  0
 32 58  1  0  0  0
 32 59  1  0  0  0
 33 60  1  0  0  0
 33 61  1  0  0  0
M  END
>  <Name>
tox-486

>  <substance>
Nitromifene

>  <CASRN>
10448-84-7

>  <from_NCI>
1

>  <RBA>
0.100000

>  <method>
RBC

>  <chemical_class>
Triphenylethylene

>  <set>
2

$$$$
tox-487
  Cerius2 12190218273D 1   1.00000                          
 Structure written by MMmdl.
 24 26  0  0  0  0  0  0  0  0999 V2000
   -0.6994    1.2518    0.5877 C   0  0  0  0  0  0
    0.5567    0.4144    0.9303 C   0  0  0  0  0  0
   -0.3470    1.5963   -0.9254 C   0  0  0  0  0  0
   -1.9111    0.3753    0.3198 C   0  0  0  0  0  0
   -0.9398    2.6376    1.6389 Cl  0  0  0  0  0  0
    0.5890   -0.6228   -0.2234 C   0  0  0  0  0  0
    0.9872   -0.4338    2.1115 C   0  0  0  0  0  0
   -0.2757    0.0769   -1.3126 C   0  0  0  0  0  0
    1.1650    2.5318   -1.2151 Cl  0  0  0  0  0  0
   -1.6293    2.5508   -1.8076 Cl  0  0  0  0  0  0
   -1.6934   -0.2824   -0.8326 C   0  0  0  0  0  0
   -3.2804    0.2975    1.3185 Cl  0  0  0  0  0  0
    1.9955   -1.1790   -0.1177 C   0  0  0  0  0  0
    2.2187   -1.1807    1.4475 C   0  0  0  0  0  0
   -0.3231   -1.4789    2.7213 Cl  0  0  0  0  0  0
    0.1130   -0.3239   -2.9679 Cl  0  0  0  0  0  0
   -2.7039   -1.4158   -1.5919 Cl  0  0  0  0  0  0
    3.2291   -0.2111   -0.9596 Cl  0  0  0  0  0  0
    2.5374   -2.8187    2.0829 Cl  0  0  0  0  0  0
    1.3986    1.1167    0.8484 H   0  0  0  0  0  0
    0.0116   -1.5244    0.0470 H   0  0  0  0  0  0
    1.3196    0.1793    2.9550 H   0  0  0  0  0  0
    2.0520   -2.1849   -0.5461 H   0  0  0  0  0  0
    3.1213   -0.6056    1.6865 H   0  0  0  0  0  0
  1  2  1  0  0  0
  1  3  1  0  0  0
  1  4  1  0  0  0
  1  5  1  0  0  0
  2  6  1  0  0  0
  2  7  1  0  0  0
  2 20  1  0  0  0
  3  8  1  0  0  0
  3  9  1  0  0  0
  3 10  1  0  0  0
  4 11  2  0  0  0
  4 12  1  0  0  0
  6  8  1  0  0  0
  6 13  1  0  0  0
  6 21  1  0  0  0
  7 14  1  0  0  0
  7 15  1  0  0  0
  7 22  1  0  0  0
  8 11  1  0  0  0
  8 16  1  0  0  0
 11 17  1  0  0  0
 13 14  1  0  0  0
 13 18  1  0  0  0
 13 23  1  0  0  0
 14 19  1  0  0  0
 14 24  1  0  0  0
M  END
>  <Name>
tox-487

>  <substance>
cis -Nonachlor

>  <CASRN>
5103-73-1

>  <from_NCI>
1

>  <RBA>
0.000000

>  <method>
hERa

>  <chemical_class>
Organochlorine;Chlorinated bridged cycloalkene

>  <set>
0

$$$$
tox-488
  Cerius2 12190218273D 1   1.00000                          
 Structure written by MMmdl.
 24 26  0  0  0  0  0  0  0  0999 V2000
   -0.7321   -1.2246   -0.5882 C   0  0  0  0  0  0
    0.5370   -0.4069   -0.9308 C   0  0  0  0  0  0
   -0.3845   -1.5754    0.9247 C   0  0  0  0  0  0
   -1.9297   -0.3293   -0.3194 C   0  0  0  0  0  0
   -0.9945   -2.6059   -1.6400 Cl  0  0  0  0  0  0
    0.5860    0.6291    0.2234 C   0  0  0  0  0  0
    0.9803    0.4349   -2.1118 C   0  0  0  0  0  0
   -0.2892   -0.0575    1.3126 C   0  0  0  0  0  0
    1.1127   -2.5347    1.2133 Cl  0  0  0  0  0  0
   -1.6813   -2.5101    1.8069 Cl  0  0  0  0  0  0
   -1.7013    0.3243    0.8333 C   0  0  0  0  0  0
   -3.2980   -0.2295   -1.3175 Cl  0  0  0  0  0  0
    2.0010    1.1632    0.1174 C   0  0  0  0  0  0
    2.2237    1.1618   -1.4479 C   0  0  0  0  0  0
   -0.3135    1.5011   -2.7204 Cl  0  0  0  0  0  0
    0.1063    0.3363    2.9680 Cl  0  0  0  0  0  0
   -2.6936    1.4730    1.5935 Cl  0  0  0  0  0  0
    3.2195    0.1757    0.9585 Cl  0  0  0  0  0  0
    2.5685    2.7948   -2.0829 Cl  0  0  0  0  0  0
    1.3677   -1.1224   -0.8495 H   0  0  0  0  0  0
    0.0227    1.5398   -0.0463 H   0  0  0  0  0  0
    1.3026   -0.1829   -2.9557 H   0  0  0  0  0  0
    2.0734    2.1679    0.5461 H   0  0  0  0  0  0
    3.1170    0.5725   -1.6873 H   0  0  0  0  0  0
  1  2  1  0  0  0
  1  3  1  0  0  0
  1  4  1  0  0  0
  1  5  1  0  0  0
  2  6  1  0  0  0
  2  7  1  0  0  0
  2 20  1  0  0  0
  3  8  1  0  0  0
  3  9  1  0  0  0
  3 10  1  0  0  0
  4 11  2  0  0  0
  4 12  1  0  0  0
  6  8  1  0  0  0
  6 13  1  0  0  0
  6 21  1  0  0  0
  7 14  1  0  0  0
  7 15  1  0  0  0
  7 22  1  0  0  0
  8 11  1  0  0  0
  8 16  1  0  0  0
 11 17  1  0  0  0
 13 14  1  0  0  0
 13 18  1  0  0  0
 13 23  1  0  0  0
 14 19  1  0  0  0
 14 24  1  0  0  0
M  END
>  <Name>
tox-488

>  <substance>
trans -Nonachlor

>  <CASRN>
39765-80-5

>  <from_NCI>
1

>  <RBA>
0.000000

>  <method>
hERa

>  <chemical_class>
Organochlorine;Chlorinated bridged cycloalkene

>  <set>
0

$$$$
tox-489
  Cerius2 12190218273D 1   1.00000                          
 Structure written by MMmdl.
 39 39  0  0  0  0  0  0  0  0999 V2000
   -3.0852    0.8253   -2.5908 C   0  0  0  0  0  0
   -1.5796    0.7172   -2.5964 C   0  0  0  0  0  0
   -3.7123    1.9880   -2.1232 C   0  0  0  0  0  0
   -3.8761   -0.2458   -3.0280 C   0  0  0  0  0  0
   -1.0478    0.1365   -1.2843 C   0  0  0  0  0  0
   -5.1051    2.0812   -2.1043 C   0  0  0  0  0  0
   -5.2686   -0.1505   -3.0082 C   0  0  0  0  0  0
    0.4783    0.0349   -1.3013 C   0  0  0  0  0  0
   -5.8827    1.0128   -2.5475 C   0  0  0  0  0  0
    1.0118   -0.5476    0.0084 C   0  0  0  0  0  0
    2.5379   -0.6472   -0.0083 C   0  0  0  0  0  0
    3.0712   -1.2308    1.3009 C   0  0  0  0  0  0
    4.5972   -1.3301    1.2848 C   0  0  0  0  0  0
    5.1298   -1.9129    2.5933 C   0  0  0  0  0  0
    6.6466   -2.0127    2.5816 C   0  0  0  0  0  0
   -1.1449    1.7090   -2.7750 H   0  0  0  0  0  0
   -1.2637    0.0932   -3.4421 H   0  0  0  0  0  0
   -3.1182    2.8299   -1.7693 H   0  0  0  0  0  0
   -3.4108   -1.1633   -3.3867 H   0  0  0  0  0  0
   -1.4800   -0.8578   -1.1146 H   0  0  0  0  0  0
   -1.3643    0.7659   -0.4428 H   0  0  0  0  0  0
   -5.5841    2.9890   -1.7413 H   0  0  0  0  0  0
   -5.8755   -0.9867   -3.3515 H   0  0  0  0  0  0
    0.9106    1.0298   -1.4639 H   0  0  0  0  0  0
    0.7950   -0.5968   -2.1401 H   0  0  0  0  0  0
   -6.9687    1.0861   -2.5320 H   0  0  0  0  0  0
    0.5803   -1.5428    0.1704 H   0  0  0  0  0  0
    0.6940    0.0832    0.8475 H   0  0  0  0  0  0
    2.9692    0.3483   -0.1694 H   0  0  0  0  0  0
    2.8558   -1.2772   -0.8479 H   0  0  0  0  0  0
    2.6400   -2.2264    1.4618 H   0  0  0  0  0  0
    2.7528   -0.6010    2.1406 H   0  0  0  0  0  0
    5.0286   -0.3346    1.1234 H   0  0  0  0  0  0
    4.9157   -1.9601    0.4453 H   0  0  0  0  0  0
    4.7050   -2.9101    2.7573 H   0  0  0  0  0  0
    4.8174   -1.2845    3.4355 H   0  0  0  0  0  0
    7.0063   -2.4314    3.5267 H   0  0  0  0  0  0
    7.1037   -1.0267    2.4511 H   0  0  0  0  0  0
    6.9909   -2.6615    1.7698 H   0  0  0  0  0  0
  1  2  1  0  0  0
  1  3  2  0  0  0
  1  4  1  0  0  0
  2  5  1  0  0  0
  2 16  1  0  0  0
  2 17  1  0  0  0
  3  6  1  0  0  0
  3 18  1  0  0  0
  4  7  2  0  0  0
  4 19  1  0  0  0
  5  8  1  0  0  0
  5 20  1  0  0  0
  5 21  1  0  0  0
  6  9  2  0  0  0
  6 22  1  0  0  0
  7  9  1  0  0  0
  7 23  1  0  0  0
  8 10  1  0  0  0
  8 24  1  0  0  0
  8 25  1  0  0  0
  9 26  1  0  0  0
 10 11  1  0  0  0
 10 27  1  0  0  0
 10 28  1  0  0  0
 11 12  1  0  0  0
 11 29  1  0  0  0
 11 30  1  0  0  0
 12 13  1  0  0  0
 12 31  1  0  0  0
 12 32  1  0  0  0
 13 14  1  0  0  0
 13 33  1  0  0  0
 13 34  1  0  0  0
 14 15  1  0  0  0
 14 35  1  0  0  0
 14 36  1  0  0  0
 15 37  1  0  0  0
 15 38  1  0  0  0
 15 39  1  0  0  0
M  END
>  <Name>
tox-489

>  <substance>
Nonylbenzene

>  <CASRN>
1081-77-2

>  <from_NCI>
1

>  <RBA>
0.000000

>  <method>
RUC

>  <chemical_class>
Aromatic hydrocarbon

>  <set>
1

$$$$
tox-490
  Cerius2 12190218273D 1   1.00000                          
 Structure written by MMmdl.
 40 40  0  0  0  0  0  0  0  0999 V2000
   -2.0698    2.4002   -2.5894 C   0  0  0  0  0  0
   -2.0256    3.7157   -2.1306 C   0  0  0  0  0  0
   -3.2957    1.8982   -3.0232 C   0  0  0  0  0  0
   -0.8332    1.5370   -2.5917 C   0  0  0  0  0  0
   -3.1869    4.5081   -2.1216 C   0  0  0  0  0  0
   -4.4451    2.7076   -3.0057 C   0  0  0  0  0  0
   -0.6741    0.7640   -1.2803 C   0  0  0  0  0  0
   -4.4425    4.0428   -2.5580 C   0  0  0  0  0  0
    0.5846   -0.1055   -1.2977 C   0  0  0  0  0  0
   -5.4873    4.7676   -2.5470 O   0  0  0  0  0  0
    0.7435   -0.8809    0.0110 C   0  0  0  0  0  0
    2.0021   -1.7499   -0.0065 C   0  0  0  0  0  0
    2.1602   -2.5257    1.3021 C   0  0  0  0  0  0
    3.4192   -3.3939    1.2856 C   0  0  0  0  0  0
    3.5772   -4.1681    2.5938 C   0  0  0  0  0  0
    4.8275   -5.0327    2.5816 C   0  0  0  0  0  0
   -1.0902    4.1454   -1.7737 H   0  0  0  0  0  0
   -3.3772    0.8724   -3.3809 H   0  0  0  0  0  0
    0.0484    2.1664   -2.7684 H   0  0  0  0  0  0
   -0.8797    0.8398   -3.4380 H   0  0  0  0  0  0
   -3.0901    5.5336   -1.7530 H   0  0  0  0  0  0
   -5.3780    2.2596   -3.3606 H   0  0  0  0  0  0
   -1.5548    0.1315   -1.1118 H   0  0  0  0  0  0
   -0.6238    1.4659   -0.4382 H   0  0  0  0  0  0
    1.4657    0.5274   -1.4591 H   0  0  0  0  0  0
    0.5332   -0.8090   -2.1376 H   0  0  0  0  0  0
   -0.1377   -1.5138    0.1722 H   0  0  0  0  0  0
    0.7944   -0.1774    0.8509 H   0  0  0  0  0  0
    2.8833   -1.1169   -0.1672 H   0  0  0  0  0  0
    1.9514   -2.4531   -0.8466 H   0  0  0  0  0  0
    1.2792   -3.1591    1.4623 H   0  0  0  0  0  0
    2.2100   -1.8224    2.1423 H   0  0  0  0  0  0
    4.3002   -2.7608    1.1246 H   0  0  0  0  0  0
    3.3693   -4.0977    0.4458 H   0  0  0  0  0  0
    2.7007   -4.8058    2.7577 H   0  0  0  0  0  0
    3.6319   -3.4688    3.4363 H   0  0  0  0  0  0
    4.9212   -5.5769    3.5266 H   0  0  0  0  0  0
    5.7261   -4.4213    2.4511 H   0  0  0  0  0  0
    4.7895   -5.7660    1.7697 H   0  0  0  0  0  0
   -6.1458    4.3199   -2.8444 H   0  0  0  0  0  0
  1  2  2  0  0  0
  1  3  1  0  0  0
  1  4  1  0  0  0
  2  5  1  0  0  0
  2 17  1  0  0  0
  3  6  2  0  0  0
  3 18  1  0  0  0
  4  7  1  0  0  0
  4 19  1  0  0  0
  4 20  1  0  0  0
  5  8  2  0  0  0
  5 21  1  0  0  0
  6  8  1  0  0  0
  6 22  1  0  0  0
  7  9  1  0  0  0
  7 23  1  0  0  0
  7 24  1  0  0  0
  8 10  1  0  0  0
  9 11  1  0  0  0
  9 25  1  0  0  0
  9 26  1  0  0  0
 10 40  1  0  0  0
 11 12  1  0  0  0
 11 27  1  0  0  0
 11 28  1  0  0  0
 12 13  1  0  0  0
 12 29  1  0  0  0
 12 30  1  0  0  0
 13 14  1  0  0  0
 13 31  1  0  0  0
 13 32  1  0  0  0
 14 15  1  0  0  0
 14 33  1  0  0  0
 14 34  1  0  0  0
 15 16  1  0  0  0
 15 35  1  0  0  0
 15 36  1  0  0  0
 16 37  1  0  0  0
 16 38  1  0  0  0
 16 39  1  0  0  0
M  END
>  <Name>
tox-490

>  <substance>
p -Nonylphenol

>  <CASRN>
104-40-5

>  <from_NCI>
1

>  <RBA>
0.100000

>  <method>
hERa-FP,hERa-FP,MCF-7 cytosol,RUC,RUC,RUC,RUC,RUC,RUC,RUC,RUC,RUC,RUC

>  <chemical_class>
Phenol; Alkylphenol

>  <set>
0

$$$$
tox-491
  Cerius2 12190218273D 1   1.00000                          
 Structure written by MMmdl.
 40 40  0  0  0  0  0  0  0  0999 V2000
    4.5609    3.8677    2.5577 C   0  0  0  0  0  0
    3.3187    4.3718    2.1262 C   0  0  0  0  0  0
    4.5249    2.5311    2.9999 C   0  0  0  0  0  0
    5.6268    4.5612    2.5473 O   0  0  0  0  0  0
    2.1344    3.6142    2.1346 C   0  0  0  0  0  0
    3.3520    1.7561    3.0169 C   0  0  0  0  0  0
    2.1405    2.2962    2.5881 C   0  0  0  0  0  0
    0.8786    1.4704    2.5910 C   0  0  0  0  0  0
    0.6927    0.7063    1.2778 C   0  0  0  0  0  0
   -0.5921   -0.1241    1.2965 C   0  0  0  0  0  0
   -0.7790   -0.8906   -0.0138 C   0  0  0  0  0  0
   -2.0640   -1.7199    0.0056 C   0  0  0  0  0  0
   -2.2501   -2.4887   -1.3035 C   0  0  0  0  0  0
   -3.5356   -3.3170   -1.2838 C   0  0  0  0  0  0
   -3.7210   -4.0868   -2.5909 C   0  0  0  0  0  0
   -4.9983   -4.9111   -2.5750 C   0  0  0  0  0  0
    3.2516    5.4013    1.7621 H   0  0  0  0  0  0
    5.4449    2.0541    3.3508 H   0  0  0  0  0  0
    1.2114    4.0729    1.7816 H   0  0  0  0  0  0
    3.4038    0.7269    3.3703 H   0  0  0  0  0  0
    0.0168    2.1255    2.7719 H   0  0  0  0  0  0
    0.9063    0.7697    3.4351 H   0  0  0  0  0  0
    1.5532    0.0475    1.1054 H   0  0  0  0  0  0
    0.6618    1.4118    0.4378 H   0  0  0  0  0  0
   -1.4528    0.5352    1.4624 H   0  0  0  0  0  0
   -0.5599   -0.8313    2.1342 H   0  0  0  0  0  0
    0.0815   -1.5502   -0.1793 H   0  0  0  0  0  0
   -0.8105   -0.1836   -0.8518 H   0  0  0  0  0  0
   -2.9246   -1.0598    0.1695 H   0  0  0  0  0  0
   -2.0333   -2.4255    0.8447 H   0  0  0  0  0  0
   -1.3899   -3.1492   -1.4670 H   0  0  0  0  0  0
   -2.2804   -1.7833   -2.1428 H   0  0  0  0  0  0
   -4.3960   -2.6564   -1.1212 H   0  0  0  0  0  0
   -3.5061   -4.0215   -0.4436 H   0  0  0  0  0  0
   -2.8657   -4.7523   -2.7559 H   0  0  0  0  0  0
   -3.7551   -3.3870   -3.4340 H   0  0  0  0  0  0
   -5.1112   -5.4536   -3.5188 H   0  0  0  0  0  0
   -5.8767   -4.2711   -2.4439 H   0  0  0  0  0  0
   -4.9823   -5.6438   -1.7618 H   0  0  0  0  0  0
    6.2724    4.0929    2.8413 H   0  0  0  0  0  0
  1  2  2  0  0  0
  1  3  1  0  0  0
  1  4  1  0  0  0
  2  5  1  0  0  0
  2 17  1  0  0  0
  3  6  2  0  0  0
  3 18  1  0  0  0
  4 40  1  0  0  0
  5  7  2  0  0  0
  5 19  1  0  0  0
  6  7  1  0  0  0
  6 20  1  0  0  0
  7  8  1  0  0  0
  8  9  1  0  0  0
  8 21  1  0  0  0
  8 22  1  0  0  0
  9 10  1  0  0  0
  9 23  1  0  0  0
  9 24  1  0  0  0
 10 11  1  0  0  0
 10 25  1  0  0  0
 10 26  1  0  0  0
 11 12  1  0  0  0
 11 27  1  0  0  0
 11 28  1  0  0  0
 12 13  1  0  0  0
 12 29  1  0  0  0
 12 30  1  0  0  0
 13 14  1  0  0  0
 13 31  1  0  0  0
 13 32  1  0  0  0
 14 15  1  0  0  0
 14 33  1  0  0  0
 14 34  1  0  0  0
 15 16  1  0  0  0
 15 35  1  0  0  0
 15 36  1  0  0  0
 16 37  1  0  0  0
 16 38  1  0  0  0
 16 39  1  0  0  0
M  END
>  <Name>
tox-491

>  <substance>
n -Nonylphenol

>  <CASRN>
25154-52-3

>  <from_NCI>
1

>  <RBA>
0.010000

>  <method>
hERa,hERa,MUC,RBC

>  <chemical_class>
Phenol; Alkylphenol

>  <set>
0

$$$$
tox-493
  Cerius2 12190218273D 1   1.00000                          
 Structure written by MMmdl.
 44 45  0  0  0  0  0  0  0  0999 V2000
   -2.7909   -1.0317   -1.3720 C   0  0  0  0  0  0
   -1.3908   -0.4543   -1.3701 C   0  0  0  0  0  0
   -0.7133   -0.3610    0.0249 C   0  0  0  0  0  0
    0.6724    0.3788   -0.0460 C   0  0  0  0  0  0
    1.3453    0.4792    1.3507 C   0  0  0  0  0  0
    2.7493    1.0472    1.3523 C   0  0  0  0  0  0
   -3.8640   -0.3347   -0.7930 C   0  0  0  0  0  0
   -5.2135   -0.7988   -0.7716 C   0  0  0  0  0  0
   -5.4775   -2.0734   -1.3911 C   0  0  0  0  0  0
   -4.3666   -2.7486   -1.9685 C   0  0  0  0  0  0
   -3.0587   -2.2524   -1.9682 C   0  0  0  0  0  0
    3.8200    0.3362    0.7862 C   0  0  0  0  0  0
    5.1728    0.7904    0.7659 C   0  0  0  0  0  0
    5.4430    2.0700    1.3722 C   0  0  0  0  0  0
    4.3343    2.7596    1.9367 C   0  0  0  0  0  0
    3.0229    2.2726    1.9359 C   0  0  0  0  0  0
   -6.6354   -2.6170   -1.4487 O   0  0  0  0  0  0
   -6.1114   -0.0746   -0.2153 O   0  0  0  0  0  0
    6.6045    2.6061    1.4292 O   0  0  0  0  0  0
    6.0681    0.0535    0.2222 O   0  0  0  0  0  0
    0.5271    1.7859   -0.6539 C   0  0  0  0  0  0
   -0.5653   -1.7712    0.6254 C   0  0  0  0  0  0
   -1.4817    0.5382   -1.8238 H   0  0  0  0  0  0
   -0.7485   -1.0346   -2.0456 H   0  0  0  0  0  0
   -1.3688    0.2140    0.6926 H   0  0  0  0  0  0
    1.3297   -0.1996   -0.7090 H   0  0  0  0  0  0
    1.4279   -0.5096    1.8137 H   0  0  0  0  0  0
    0.7046    1.0695    2.0189 H   0  0  0  0  0  0
   -3.6424    0.6344   -0.3330 H   0  0  0  0  0  0
   -4.5258   -3.7191   -2.4501 H   0  0  0  0  0  0
   -2.2672   -2.8347   -2.4361 H   0  0  0  0  0  0
    3.5936   -0.6366    0.3363 H   0  0  0  0  0  0
    4.4981    3.7343    2.4081 H   0  0  0  0  0  0
    2.2334    2.8657    2.3936 H   0  0  0  0  0  0
    1.4734    2.3350   -0.6385 H   0  0  0  0  0  0
   -0.2155    2.3763   -0.1070 H   0  0  0  0  0  0
    0.2290    1.7417   -1.7050 H   0  0  0  0  0  0
   -0.2620   -1.7325    1.6751 H   0  0  0  0  0  0
    0.1745   -2.3590    0.0719 H   0  0  0  0  0  0
   -1.5118   -2.3200    0.6120 H   0  0  0  0  0  0
   -6.5786   -3.3626   -1.8528 H   0  0  0  0  0  0
   -6.8648   -0.4642   -0.2718 H   0  0  0  0  0  0
    6.5511    3.3566    1.8246 H   0  0  0  0  0  0
    6.8239    0.4383    0.2778 H   0  0  0  0  0  0
  1  2  1  0  0  0
  1  7  2  0  0  0
  1 11  1  0  0  0
  2  3  1  0  0  0
  2 23  1  0  0  0
  2 24  1  0  0  0
  3  4  1  0  0  0
  3 22  1  0  0  0
  3 25  1  0  0  0
  4  5  1  0  0  0
  4 21  1  0  0  0
  4 26  1  0  0  0
  5  6  1  0  0  0
  5 27  1  0  0  0
  5 28  1  0  0  0
  6 12  2  0  0  0
  6 16  1  0  0  0
  7  8  1  0  0  0
  7 29  1  0  0  0
  8  9  2  0  0  0
  8 18  1  0  0  0
  9 10  1  0  0  0
  9 17  1  0  0  0
 10 11  2  0  0  0
 10 30  1  0  0  0
 11 31  1  0  0  0
 12 13  1  0  0  0
 12 32  1  0  0  0
 13 14  2  0  0  0
 13 20  1  0  0  0
 14 15  1  0  0  0
 14 19  1  0  0  0
 15 16  2  0  0  0
 15 33  1  0  0  0
 16 34  1  0  0  0
 17 41  1  0  0  0
 18 42  1  0  0  0
 19 43  1  0  0  0
 20 44  1  0  0  0
 21 35  1  0  0  0
 21 36  1  0  0  0
 21 37  1  0  0  0
 22 38  1  0  0  0
 22 39  1  0  0  0
 22 40  1  0  0  0
M  END
>  <Name>
tox-493

>  <substance>
Nordihydroguariaretic acid

>  <CASRN>
500-38-9

>  <from_NCI>
1

>  <RBA>
0.030000

>  <method>
RUC

>  <chemical_class>
Bisphenol

>  <set>
0

$$$$
tox-494
  Cerius2 12190218273D 1   1.00000                          
 Structure written by MMmdl.
 48 51  0  0  0  0  0  0  0  0999 V2000
    2.0422    0.0292   -0.1018 C   0  0  0  0  0  0
    2.1111    1.3529    0.7131 C   0  0  0  0  0  0
    0.7135   -0.7187    0.0588 C   0  0  0  0  0  0
    3.3338   -0.6954    0.2725 C   0  0  0  0  0  0
    3.6003    1.7861    0.4022 C   0  0  0  0  0  0
    0.9759    2.2672    0.1963 C   0  0  0  0  0  0
    1.8831    1.1045    2.2440 C   0  0  0  0  0  0
   -0.4488    0.1997   -0.4183 C   0  0  0  0  0  0
    0.6964   -2.0314   -0.7364 C   0  0  0  0  0  0
    4.3657    0.4312    0.5250 C   0  0  0  0  0  0
    3.7761    2.3272   -0.9693 C   0  0  0  0  0  0
    4.1076    2.6819    1.2311 O   0  0  0  0  0  0
   -0.4052    1.5891    0.2650 C   0  0  0  0  0  0
   -1.8298   -0.5056   -0.2470 C   0  0  0  0  0  0
   -0.6254   -2.7649   -0.5394 C   0  0  0  0  0  0
    3.9163    2.7381   -2.0919 C   0  0  0  0  0  0
   -1.8177   -1.8990   -0.8662 C   0  0  0  0  0  0
   -2.9591    0.3683   -0.8333 C   0  0  0  0  0  0
   -2.8125   -2.3849   -1.6293 C   0  0  0  0  0  0
   -4.2696   -0.3860   -0.9870 C   0  0  0  0  0  0
   -4.0669   -1.6219   -1.8252 C   0  0  0  0  0  0
   -4.9313   -2.0520   -2.5915 O   0  0  0  0  0  0
    2.1252    0.2701   -1.1735 H   0  0  0  0  0  0
    0.5602   -0.9764    1.1136 H   0  0  0  0  0  0
    3.6695   -1.3617   -0.5290 H   0  0  0  0  0  0
    3.2075   -1.3026    1.1759 H   0  0  0  0  0  0
    1.1508    2.5482   -0.8487 H   0  0  0  0  0  0
    0.9518    3.2030    0.7676 H   0  0  0  0  0  0
    1.8993    2.0538    2.7922 H   0  0  0  0  0  0
    2.6535    0.4624    2.6822 H   0  0  0  0  0  0
    0.9213    0.6367    2.4660 H   0  0  0  0  0  0
   -0.3005    0.3780   -1.4950 H   0  0  0  0  0  0
    1.5121   -2.6859   -0.4083 H   0  0  0  0  0  0
    0.8564   -1.8312   -1.8036 H   0  0  0  0  0  0
    5.1930    0.3512   -0.1926 H   0  0  0  0  0  0
    4.8045    0.2785    1.5212 H   0  0  0  0  0  0
   -1.1218    2.2633   -0.2180 H   0  0  0  0  0  0
   -0.7291    1.5003    1.3080 H   0  0  0  0  0  0
   -2.0219   -0.6356    0.8275 H   0  0  0  0  0  0
   -0.7087   -3.0856    0.5070 H   0  0  0  0  0  0
   -0.6179   -3.6782   -1.1467 H   0  0  0  0  0  0
    4.0406    3.1033   -3.0868 H   0  0  0  0  0  0
   -2.6558    0.7515   -1.8171 H   0  0  0  0  0  0
   -3.1336    1.2392   -0.1914 H   0  0  0  0  0  0
   -2.7836   -3.3742   -2.0726 H   0  0  0  0  0  0
   -5.0046    0.2577   -1.4822 H   0  0  0  0  0  0
   -4.6723   -0.6860   -0.0137 H   0  0  0  0  0  0
    4.9054    2.8622    0.9998 H   0  0  0  0  0  0
  1  2  1  0  0  0
  1  3  1  0  0  0
  1  4  1  0  0  0
  1 23  1  0  0  0
  2  5  1  0  0  0
  2  6  1  0  0  0
  2  7  1  0  0  0
  3  8  1  0  0  0
  3  9  1  0  0  0
  3 24  1  0  0  0
  4 10  1  0  0  0
  4 25  1  0  0  0
  4 26  1  0  0  0
  5 10  1  0  0  0
  5 11  1  0  0  0
  5 12  1  0  0  0
  6 13  1  0  0  0
  6 27  1  0  0  0
  6 28  1  0  0  0
  7 29  1  0  0  0
  7 30  1  0  0  0
  7 31  1  0  0  0
  8 13  1  0  0  0
  8 14  1  0  0  0
  8 32  1  0  0  0
  9 15  1  0  0  0
  9 33  1  0  0  0
  9 34  1  0  0  0
 10 35  1  0  0  0
 10 36  1  0  0  0
 11 16  3  0  0  0
 12 48  1  0  0  0
 13 37  1  0  0  0
 13 38  1  0  0  0
 14 17  1  0  0  0
 14 18  1  0  0  0
 14 39  1  0  0  0
 15 17  1  0  0  0
 15 40  1  0  0  0
 15 41  1  0  0  0
 16 42  1  0  0  0
 17 19  2  0  0  0
 18 20  1  0  0  0
 18 43  1  0  0  0
 18 44  1  0  0  0
 19 21  1  0  0  0
 19 45  1  0  0  0
 20 21  1  0  0  0
 20 46  1  0  0  0
 20 47  1  0  0  0
 21 22  2  0  0  0
M  END
>  <Name>
tox-494

>  <substance>
Norethindrone

>  <CASRN>
68-22-4

>  <from_NCI>
1

>  <RBA>
0.070000

>  <method>
hERa

>  <chemical_class>
Steroid, nonphenolic

>  <set>
2

$$$$
tox-495
  Cerius2 12190218273D 1   1.00000                          
 Structure written by MMmdl.
 48 51  0  0  0  0  0  0  0  0999 V2000
   -7.8757   -5.2237   10.6479 C   0  0  0  0  0  0
   -9.1809   -4.3848   10.5216 C   0  0  0  0  0  0
   -6.9951   -4.7950   11.8256 C   0  0  0  0  0  0
   -7.2839   -5.1872    9.2408 C   0  0  0  0  0  0
   -9.7775   -5.0123    9.1981 C   0  0  0  0  0  0
   -9.9787   -4.5769   11.8326 C   0  0  0  0  0  0
   -7.7929   -4.9849   13.1507 C   0  0  0  0  0  0
   -5.6908   -5.5883   11.9055 C   0  0  0  0  0  0
   -8.5094   -5.1325    8.2950 C   0  0  0  0  0  0
  -10.3635   -6.3608    9.4051 C   0  0  0  0  0  0
  -10.7045   -4.2839    8.6009 O   0  0  0  0  0  0
   -9.1491   -4.2374   13.0879 C   0  0  0  0  0  0
   -6.9243   -4.6733   14.3771 C   0  0  0  0  0  0
   -4.8187   -5.0601   13.0427 C   0  0  0  0  0  0
  -10.8112   -7.4650    9.5751 C   0  0  0  0  0  0
   -5.5728   -4.7292   14.3137 C   0  0  0  0  0  0
   -7.6368   -4.3887   15.6860 C   0  0  0  0  0  0
   -4.6688   -4.5089   15.5061 C   0  0  0  0  0  0
   -6.7680   -3.7574   16.7649 C   0  0  0  0  0  0
   -5.4299   -4.4365   16.8142 C   0  0  0  0  0  0
   -4.9329   -4.8124   17.8819 O   0  0  0  0  0  0
   -8.8777   -2.8555   10.3558 C   0  0  0  0  0  0
   -8.1459   -6.2742   10.8391 H   0  0  0  0  0  0
   -6.7214   -3.7386   11.7124 H   0  0  0  0  0  0
   -6.6711   -6.0715    9.0375 H   0  0  0  0  0  0
   -6.6509   -4.3052    9.0925 H   0  0  0  0  0  0
  -10.3122   -5.6162   11.9330 H   0  0  0  0  0  0
  -10.8868   -3.9621   11.8187 H   0  0  0  0  0  0
   -8.0448   -6.0531   13.2421 H   0  0  0  0  0  0
   -5.1284   -5.5200   10.9676 H   0  0  0  0  0  0
   -5.9069   -6.6522   12.0689 H   0  0  0  0  0  0
   -8.5327   -6.0267    7.6580 H   0  0  0  0  0  0
   -8.3841   -4.2744    7.6197 H   0  0  0  0  0  0
   -9.7624   -4.5089   13.9559 H   0  0  0  0  0  0
   -8.9859   -3.1556   13.1529 H   0  0  0  0  0  0
   -4.3038   -4.1505   12.7077 H   0  0  0  0  0  0
   -4.0427   -5.8064   13.2510 H   0  0  0  0  0  0
  -11.2091   -8.4437    9.7258 H   0  0  0  0  0  0
   -8.0555   -5.3333   16.0553 H   0  0  0  0  0  0
   -8.4747   -3.7025   15.5298 H   0  0  0  0  0  0
   -4.1081   -3.5763   15.3835 H   0  0  0  0  0  0
   -3.9602   -5.3409   15.5885 H   0  0  0  0  0  0
   -7.2590   -3.8393   17.7402 H   0  0  0  0  0  0
   -6.5993   -2.6937   16.5610 H   0  0  0  0  0  0
   -9.8119   -2.2844   10.2967 H   0  0  0  0  0  0
   -8.3061   -2.6386    9.4481 H   0  0  0  0  0  0
   -8.3133   -2.4347   11.1910 H   0  0  0  0  0  0
  -10.9738   -4.6856    7.9020 H   0  0  0  0  0  0
  1  2  1  0  0  0
  1  3  1  0  0  0
  1  4  1  0  0  0
  1 23  1  0  0  0
  2  5  1  0  0  0
  2  6  1  0  0  0
  2 22  1  0  0  0
  3  7  1  0  0  0
  3  8  1  0  0  0
  3 24  1  0  0  0
  4  9  1  0  0  0
  4 25  1  0  0  0
  4 26  1  0  0  0
  5  9  1  0  0  0
  5 10  1  0  0  0
  5 11  1  0  0  0
  6 12  1  0  0  0
  6 27  1  0  0  0
  6 28  1  0  0  0
  7 12  1  0  0  0
  7 13  1  0  0  0
  7 29  1  0  0  0
  8 14  1  0  0  0
  8 30  1  0  0  0
  8 31  1  0  0  0
  9 32  1  0  0  0
  9 33  1  0  0  0
 10 15  3  0  0  0
 11 48  1  0  0  0
 12 34  1  0  0  0
 12 35  1  0  0  0
 13 16  2  0  0  0
 13 17  1  0  0  0
 14 16  1  0  0  0
 14 36  1  0  0  0
 14 37  1  0  0  0
 15 38  1  0  0  0
 16 18  1  0  0  0
 17 19  1  0  0  0
 17 39  1  0  0  0
 17 40  1  0  0  0
 18 20  1  0  0  0
 18 41  1  0  0  0
 18 42  1  0  0  0
 19 20  1  0  0  0
 19 43  1  0  0  0
 19 44  1  0  0  0
 20 21  2  0  0  0
 22 45  1  0  0  0
 22 46  1  0  0  0
 22 47  1  0  0  0
M  END
>  <Name>
tox-495

>  <substance>
Norethynodrel

>  <CASRN>
68-23-5

>  <from_NCI>
1

>  <RBA>
0.400000

>  <method>
hERa,RUC,RUC

>  <chemical_class>
Steroid, nonphenolic

>  <set>
0

$$$$
tox-496
  Cerius2 12190218273D 1   1.00000                          
 Structure written by MMmdl.
 46 49  0  0  0  0  0  0  0  0999 V2000
    2.0497    0.4079   -0.2513 C   0  0  0  0  0  0
    0.8047   -0.4658   -0.0717 C   0  0  0  0  0  0
    1.9808    1.7448    0.5376 C   0  0  0  0  0  0
    3.4128   -0.1642    0.1265 C   0  0  0  0  0  0
   -0.4394    0.3196   -0.5796 C   0  0  0  0  0  0
    0.9222   -1.7960   -0.8273 C   0  0  0  0  0  0
    0.7753    2.5325   -0.0149 C   0  0  0  0  0  0
    3.3924    2.3288    0.1488 C   0  0  0  0  0  0
    1.7978    1.5272    2.0716 C   0  0  0  0  0  0
    4.3127    1.0786    0.3068 C   0  0  0  0  0  0
   -1.7452   -0.5123   -0.3903 C   0  0  0  0  0  0
   -0.5348    1.7273    0.0605 C   0  0  0  0  0  0
   -0.3224   -2.6499   -0.6126 C   0  0  0  0  0  0
    3.8207    3.3005    0.9368 O   0  0  0  0  0  0
   -1.5927   -1.9155   -0.9674 C   0  0  0  0  0  0
   -2.9513    0.2288   -1.0056 C   0  0  0  0  0  0
   -2.5312   -2.5193   -1.7176 C   0  0  0  0  0  0
   -4.1808   -0.6547   -1.1394 C   0  0  0  0  0  0
   -3.8536   -1.8895   -1.9389 C   0  0  0  0  0  0
   -4.6679   -2.4256   -2.6931 O   0  0  0  0  0  0
    2.1089    0.6440   -1.3272 H   0  0  0  0  0  0
    0.6720   -0.7046    0.9904 H   0  0  0  0  0  0
    3.8066   -0.8263   -0.6515 H   0  0  0  0  0  0
    3.3649   -0.7386    1.0583 H   0  0  0  0  0  0
   -0.3033    0.4789   -1.6608 H   0  0  0  0  0  0
    1.7965   -2.3565   -0.4771 H   0  0  0  0  0  0
    1.0681   -1.6123   -1.8995 H   0  0  0  0  0  0
    0.9561    2.8020   -1.0637 H   0  0  0  0  0  0
    0.6546    3.4770    0.5292 H   0  0  0  0  0  0
    3.3512    2.5234   -0.9355 H   0  0  0  0  0  0
    1.7242    2.4904    2.5899 H   0  0  0  0  0  0
    2.6347    0.9810    2.5178 H   0  0  0  0  0  0
    0.8892    0.9728    2.3185 H   0  0  0  0  0  0
    5.1058    1.0927   -0.4514 H   0  0  0  0  0  0
    4.8121    1.0218    1.2837 H   0  0  0  0  0  0
   -1.9294   -0.6286    0.6871 H   0  0  0  0  0  0
   -0.8564    1.6367    1.1043 H   0  0  0  0  0  0
   -1.3082    2.3152   -0.4469 H   0  0  0  0  0  0
   -0.3795   -2.9469    0.4426 H   0  0  0  0  0  0
   -0.2219   -3.5752   -1.1928 H   0  0  0  0  0  0
   -2.6817    0.6101   -1.9999 H   0  0  0  0  0  0
   -3.2134    1.0974   -0.3909 H   0  0  0  0  0  0
   -2.4031   -3.5137   -2.1310 H   0  0  0  0  0  0
   -4.9726   -0.1014   -1.6557 H   0  0  0  0  0  0
   -4.5574   -0.9632   -0.1582 H   0  0  0  0  0  0
    4.5829    3.5662    0.6703 H   0  0  0  0  0  0
  1  2  1  0  0  0
  1  3  1  0  0  0
  1  4  1  0  0  0
  1 21  1  0  0  0
  2  5  1  0  0  0
  2  6  1  0  0  0
  2 22  1  0  0  0
  3  7  1  0  0  0
  3  8  1  0  0  0
  3  9  1  0  0  0
  4 10  1  0  0  0
  4 23  1  0  0  0
  4 24  1  0  0  0
  5 11  1  0  0  0
  5 12  1  0  0  0
  5 25  1  0  0  0
  6 13  1  0  0  0
  6 26  1  0  0  0
  6 27  1  0  0  0
  7 12  1  0  0  0
  7 28  1  0  0  0
  7 29  1  0  0  0
  8 10  1  0  0  0
  8 14  1  0  0  0
  8 30  1  0  0  0
  9 31  1  0  0  0
  9 32  1  0  0  0
  9 33  1  0  0  0
 10 34  1  0  0  0
 10 35  1  0  0  0
 11 15  1  0  0  0
 11 16  1  0  0  0
 11 36  1  0  0  0
 12 37  1  0  0  0
 12 38  1  0  0  0
 13 15  1  0  0  0
 13 39  1  0  0  0
 13 40  1  0  0  0
 14 46  1  0  0  0
 15 17  2  0  0  0
 16 18  1  0  0  0
 16 41  1  0  0  0
 16 42  1  0  0  0
 17 19  1  0  0  0
 17 43  1  0  0  0
 18 19  1  0  0  0
 18 44  1  0  0  0
 18 45  1  0  0  0
 19 20  2  0  0  0
M  END
>  <Name>
tox-496

>  <substance>
19-Nortestosterone

>  <CASRN>
434-22-0

>  <from_NCI>
1

>  <RBA>
0.060000

>  <method>
hERa,MUC

>  <chemical_class>
Steroid, nonphenolic

>  <set>
1

$$$$
tox-497
  Cerius2 12190218273D 1   1.00000                          
 Structure written by MMmdl.
 22 23  0  0  0  0  0  0  0  0999 V2000
   -0.7382    0.0629    0.0148 C   0  0  0  0  0  0
    0.7382    0.0629   -0.0148 C   0  0  0  0  0  0
   -1.4887    0.9178    0.8516 C   0  0  0  0  0  0
   -1.4278   -0.8278   -0.8240 C   0  0  0  0  0  0
    1.4887    0.9178   -0.8516 C   0  0  0  0  0  0
    1.4278   -0.8278    0.8240 C   0  0  0  0  0  0
   -2.8985    0.8803    0.8358 C   0  0  0  0  0  0
   -0.6437    2.0198    1.9074 Cl  0  0  0  0  0  0
   -2.8244   -0.8684   -0.8429 C   0  0  0  0  0  0
    2.8985    0.8803   -0.8358 C   0  0  0  0  0  0
    0.6437    2.0198   -1.9074 Cl  0  0  0  0  0  0
    2.8244   -0.8684    0.8429 C   0  0  0  0  0  0
   -3.5689   -0.0165   -0.0163 C   0  0  0  0  0  0
   -3.8102    1.9461    1.8729 Cl  0  0  0  0  0  0
   -3.5659   -2.0038   -1.9213 Cl  0  0  0  0  0  0
    3.5689   -0.0165    0.0163 C   0  0  0  0  0  0
    3.8103    1.9461   -1.8729 Cl  0  0  0  0  0  0
    3.5660   -2.0038    1.9213 Cl  0  0  0  0  0  0
   -5.3088   -0.0776   -0.0513 Cl  0  0  0  0  0  0
    5.3088   -0.0776    0.0512 Cl  0  0  0  0  0  0
   -0.8652   -1.4969   -1.4749 H   0  0  0  0  0  0
    0.8652   -1.4969    1.4749 H   0  0  0  0  0  0
  1  2  1  0  0  0
  1  3  2  0  0  0
  1  4  1  0  0  0
  2  5  2  0  0  0
  2  6  1  0  0  0
  3  7  1  0  0  0
  3  8  1  0  0  0
  4  9  2  0  0  0
  4 21  1  0  0  0
  5 10  1  0  0  0
  5 11  1  0  0  0
  6 12  2  0  0  0
  6 22  1  0  0  0
  7 13  2  0  0  0
  7 14  1  0  0  0
  9 13  1  0  0  0
  9 15  1  0  0  0
 10 16  2  0  0  0
 10 17  1  0  0  0
 12 16  1  0  0  0
 12 18  1  0  0  0
 13 19  1  0  0  0
 16 20  1  0  0  0
M  END
>  <Name>
tox-497

>  <substance>
2,2',3,3',4,4',5,5'-Octachlorobiphenyl

>  <CASRN>
35694-08-7

>  <from_NCI>
1

>  <RBA>
0.000000

>  <method>
GST-hERadef

>  <chemical_class>
Polychlorinated biphenyl

>  <set>
0

$$$$
tox-498
  Cerius2 12190218273D 1   1.00000                          
 Structure written by MMmdl.
 28 27  0  0  0  0  0  0  0  0999 V2000
   -5.4233   -0.9053    0.0000 O   0  0  0  0  0  0
    5.4233    0.9053    0.0000 O   0  0  0  0  0  0
    4.4740   -0.0168    0.0000 C   0  0  0  0  0  0
   -4.4740    0.0168    0.0000 C   0  0  0  0  0  0
   -3.1114   -0.7294    0.0000 C   0  0  0  0  0  0
    3.1114    0.7294    0.0000 C   0  0  0  0  0  0
    1.9279   -0.2510    0.0000 C   0  0  0  0  0  0
   -1.9279    0.2510    0.0000 C   0  0  0  0  0  0
   -0.5883   -0.4889    0.0000 C   0  0  0  0  0  0
    0.5883    0.4889    0.0000 C   0  0  0  0  0  0
    4.4302   -0.7146    0.8514 H   0  0  0  0  0  0
    4.4302   -0.7146   -0.8514 H   0  0  0  0  0  0
   -4.4302    0.7146    0.8514 H   0  0  0  0  0  0
   -4.4302    0.7146   -0.8514 H   0  0  0  0  0  0
   -3.0324   -1.3782   -0.8841 H   0  0  0  0  0  0
   -3.0324   -1.3783    0.8841 H   0  0  0  0  0  0
    3.0324    1.3782   -0.8841 H   0  0  0  0  0  0
    3.0324    1.3782    0.8841 H   0  0  0  0  0  0
    1.9890   -0.8988    0.8829 H   0  0  0  0  0  0
    1.9890   -0.8988   -0.8829 H   0  0  0  0  0  0
   -1.9891    0.8988    0.8829 H   0  0  0  0  0  0
   -1.9891    0.8988   -0.8829 H   0  0  0  0  0  0
   -0.5271   -1.1372   -0.8825 H   0  0  0  0  0  0
   -0.5271   -1.1372    0.8825 H   0  0  0  0  0  0
    0.5271    1.1372   -0.8825 H   0  0  0  0  0  0
    0.5271    1.1372    0.8825 H   0  0  0  0  0  0
   -6.1849   -0.5279    0.0000 H   0  0  0  0  0  0
    6.1849    0.5279    0.0000 H   0  0  0  0  0  0
  1  4  1  0  0  0
  1 27  1  0  0  0
  2  3  1  0  0  0
  2 28  1  0  0  0
  3  6  1  0  0  0
  3 11  1  0  0  0
  3 12  1  0  0  0
  4  5  1  0  0  0
  4 13  1  0  0  0
  4 14  1  0  0  0
  5  8  1  0  0  0
  5 15  1  0  0  0
  5 16  1  0  0  0
  6  7  1  0  0  0
  6 17  1  0  0  0
  6 18  1  0  0  0
  7 10  1  0  0  0
  7 19  1  0  0  0
  7 20  1  0  0  0
  8  9  1  0  0  0
  8 21  1  0  0  0
  8 22  1  0  0  0
  9 10  1  0  0  0
  9 23  1  0  0  0
  9 24  1  0  0  0
 10 25  1  0  0  0
 10 26  1  0  0  0
M  END
>  <Name>
tox-498

>  <substance>
1,8-Octanediol

>  <CASRN>
629-41-4

>  <from_NCI>
1

>  <RBA>
0.000000

>  <method>
RUC

>  <chemical_class>
Alcohol

>  <set>
0

$$$$
tox-499
  Cerius2 12190218273D 1   1.00000                          
 Structure written by MMmdl.
 37 37  0  0  0  0  0  0  0  0999 V2000
   -2.9174   -0.0823    2.5855 C   0  0  0  0  0  0
   -4.0356   -0.7820    2.1348 C   0  0  0  0  0  0
   -3.0952    1.2325    3.0126 C   0  0  0  0  0  0
   -1.5511   -0.7206    2.5866 C   0  0  0  0  0  0
   -5.3031   -0.1739    2.1275 C   0  0  0  0  0  0
   -4.3716    1.8218    2.9970 C   0  0  0  0  0  0
   -0.8064   -0.4783    1.2716 C   0  0  0  0  0  0
   -5.5276    1.1483    2.5575 C   0  0  0  0  0  0
    0.5757   -1.1340    1.2881 C   0  0  0  0  0  0
   -6.6784    1.6894    2.5483 O   0  0  0  0  0  0
    1.3228   -0.8916   -0.0243 C   0  0  0  0  0  0
    2.7038   -1.5487   -0.0073 C   0  0  0  0  0  0
    3.4520   -1.3049   -1.3187 C   0  0  0  0  0  0
    4.8320   -1.9614   -1.3012 C   0  0  0  0  0  0
    5.5795   -1.7205   -2.6028 C   0  0  0  0  0  0
   -3.9403   -1.8088    1.7831 H   0  0  0  0  0  0
   -2.2468    1.8189    3.3639 H   0  0  0  0  0  0
   -1.6541   -1.7979    2.7692 H   0  0  0  0  0  0
   -0.9682   -0.3269    3.4291 H   0  0  0  0  0  0
   -6.1437   -0.7734    1.7656 H   0  0  0  0  0  0
   -4.4497    2.8556    3.3466 H   0  0  0  0  0  0
   -0.6992    0.5999    1.0975 H   0  0  0  0  0  0
   -1.3918   -0.8767    0.4333 H   0  0  0  0  0  0
    0.4681   -2.2126    1.4557 H   0  0  0  0  0  0
    1.1621   -0.7335    2.1239 H   0  0  0  0  0  0
    1.4311    0.1869   -0.1914 H   0  0  0  0  0  0
    0.7361   -1.2912   -0.8604 H   0  0  0  0  0  0
    2.5954   -2.6274    0.1589 H   0  0  0  0  0  0
    3.2900   -1.1500    0.8296 H   0  0  0  0  0  0
    3.5603   -0.2262   -1.4850 H   0  0  0  0  0  0
    2.8659   -1.7036   -2.1558 H   0  0  0  0  0  0
    4.7291   -3.0408   -1.1401 H   0  0  0  0  0  0
    5.4233   -1.5638   -0.4681 H   0  0  0  0  0  0
    6.5635   -2.1985   -2.5688 H   0  0  0  0  0  0
    5.7277   -0.6501   -2.7778 H   0  0  0  0  0  0
    5.0296   -2.1351   -3.4537 H   0  0  0  0  0  0
   -6.6196    2.4852    2.8410 H   0  0  0  0  0  0
  1  2  2  0  0  0
  1  3  1  0  0  0
  1  4  1  0  0  0
  2  5  1  0  0  0
  2 16  1  0  0  0
  3  6  2  0  0  0
  3 17  1  0  0  0
  4  7  1  0  0  0
  4 18  1  0  0  0
  4 19  1  0  0  0
  5  8  2  0  0  0
  5 20  1  0  0  0
  6  8  1  0  0  0
  6 21  1  0  0  0
  7  9  1  0  0  0
  7 22  1  0  0  0
  7 23  1  0  0  0
  8 10  1  0  0  0
  9 11  1  0  0  0
  9 24  1  0  0  0
  9 25  1  0  0  0
 10 37  1  0  0  0
 11 12  1  0  0  0
 11 26  1  0  0  0
 11 27  1  0  0  0
 12 13  1  0  0  0
 12 28  1  0  0  0
 12 29  1  0  0  0
 13 14  1  0  0  0
 13 30  1  0  0  0
 13 31  1  0  0  0
 14 15  1  0  0  0
 14 32  1  0  0  0
 14 33  1  0  0  0
 15 34  1  0  0  0
 15 35  1  0  0  0
 15 36  1  0  0  0
M  END
>  <Name>
tox-499

>  <substance>
4-n -Octylphenol

>  <CASRN>
1806-26-4

>  <from_NCI>
1

>  <RBA>
0.300000

>  <method>
hERa,MCF-7 cytosol,RBC,RUC

>  <chemical_class>
Alkylphenol

>  <set>
0

$$$$
tox-500
  Cerius2 12190218273D 1   1.00000                          
 Structure written by MMmdl.
 37 37  0  0  0  0  0  0  0  0999 V2000
    1.8403    0.9757    0.6443 C   0  0  0  0  0  0
    0.3095    1.0159    0.8309 C   0  0  0  0  0  0
    2.3912   -0.4693    0.3596 C   0  0  0  0  0  0
    2.4627    1.4350    1.9956 C   0  0  0  0  0  0
    2.3627    1.9730   -0.4113 C   0  0  0  0  0  0
   -0.3305    0.1573    1.7360 C   0  0  0  0  0  0
   -0.5173    1.9198    0.1546 C   0  0  0  0  0  0
    2.1807   -1.1962   -1.0093 C   0  0  0  0  0  0
   -1.7252    0.1960    1.9340 C   0  0  0  0  0  0
   -1.9117    1.9437    0.3653 C   0  0  0  0  0  0
    2.4791   -2.6984   -0.7779 C   0  0  0  0  0  0
    3.1760   -0.7070   -2.0793 C   0  0  0  0  0  0
    0.7539   -1.0843   -1.5583 C   0  0  0  0  0  0
   -2.5757    1.0867    1.2590 C   0  0  0  0  0  0
   -3.8339    1.1176    1.4431 O   0  0  0  0  0  0
    2.0118   -1.1340    1.1472 H   0  0  0  0  0  0
    3.4777   -0.4464    0.5362 H   0  0  0  0  0  0
    3.5550    1.5016    1.9261 H   0  0  0  0  0  0
    2.2327    0.7404    2.8117 H   0  0  0  0  0  0
    2.0894    2.4231    2.2914 H   0  0  0  0  0  0
    3.4456    1.8729   -0.5482 H   0  0  0  0  0  0
    2.1763    3.0110   -0.1086 H   0  0  0  0  0  0
    1.8829    1.8364   -1.3842 H   0  0  0  0  0  0
    0.2397   -0.5632    2.3207 H   0  0  0  0  0  0
   -0.1143    2.6369   -0.5576 H   0  0  0  0  0  0
   -2.1462   -0.5091    2.6567 H   0  0  0  0  0  0
   -2.4886    2.6777   -0.2053 H   0  0  0  0  0  0
    2.3866   -3.2728   -1.7069 H   0  0  0  0  0  0
    1.7822   -3.1337   -0.0525 H   0  0  0  0  0  0
    3.4960   -2.8451   -0.3962 H   0  0  0  0  0  0
    3.1488   -1.3540   -2.9645 H   0  0  0  0  0  0
    4.2041   -0.7161   -1.7005 H   0  0  0  0  0  0
    2.9540    0.3026   -2.4293 H   0  0  0  0  0  0
    0.6327   -1.6934   -2.4621 H   0  0  0  0  0  0
    0.5034   -0.0572   -1.8368 H   0  0  0  0  0  0
    0.0173   -1.4387   -0.8300 H   0  0  0  0  0  0
   -4.1778    1.7180    0.9494 H   0  0  0  0  0  0
  1  2  1  0  0  0
  1  3  1  0  0  0
  1  4  1  0  0  0
  1  5  1  0  0  0
  2  6  2  0  0  0
  2  7  1  0  0  0
  3  8  1  0  0  0
  3 16  1  0  0  0
  3 17  1  0  0  0
  4 18  1  0  0  0
  4 19  1  0  0  0
  4 20  1  0  0  0
  5 21  1  0  0  0
  5 22  1  0  0  0
  5 23  1  0  0  0
  6  9  1  0  0  0
  6 24  1  0  0  0
  7 10  2  0  0  0
  7 25  1  0  0  0
  8 11  1  0  0  0
  8 12  1  0  0  0
  8 13  1  0  0  0
  9 14  2  0  0  0
  9 26  1  0  0  0
 10 14  1  0  0  0
 10 27  1  0  0  0
 11 28  1  0  0  0
 11 29  1  0  0  0
 11 30  1  0  0  0
 12 31  1  0  0  0
 12 32  1  0  0  0
 12 33  1  0  0  0
 13 34  1  0  0  0
 13 35  1  0  0  0
 13 36  1  0  0  0
 14 15  1  0  0  0
 15 37  1  0  0  0
M  END
>  <Name>
tox-500

>  <substance>
4-tert -Octylphenol

>  <CASRN>
140-66-9

>  <from_NCI>
1

>  <RBA>
0.200000

>  <method>
GST-hERadef,GST-mERadef,hERa,hERa-FP,RUC,RUC,RUC

>  <chemical_class>
Alkylphenol

>  <set>
2

$$$$
tox-501
  Cerius2 12190218273D 1   1.00000                          
 Structure written by MMmdl.
 22 23  0  0  0  0  0  0  0  0999 V2000
   -0.8738   -0.1116    0.0063 C   0  0  0  0  0  0
    0.3921    0.6543   -0.0139 C   0  0  0  0  0  0
   -1.0502   -1.2651   -0.7970 C   0  0  0  0  0  0
   -1.9463    0.2870    0.8337 C   0  0  0  0  0  0
    1.4705    0.3672    0.8529 C   0  0  0  0  0  0
    0.5295    1.7134   -0.9322 C   0  0  0  0  0  0
   -2.2590   -1.9826   -0.7618 C   0  0  0  0  0  0
    0.2447   -1.8008   -1.8349 Cl  0  0  0  0  0  0
   -3.1446   -0.4312    0.8622 C   0  0  0  0  0  0
   -1.8365    1.6806    1.8598 Cl  0  0  0  0  0  0
    2.6476    1.1309    0.7870 C   0  0  0  0  0  0
    1.3309   -0.9356    1.9990 Cl  0  0  0  0  0  0
    1.7014    2.4668   -0.9917 C   0  0  0  0  0  0
   -3.3004   -1.5633    0.0664 C   0  0  0  0  0  0
   -2.5299   -3.3997   -1.7191 Cl  0  0  0  0  0  0
    2.7585    2.1760   -0.1336 C   0  0  0  0  0  0
    4.0067    0.8339    1.8182 Cl  0  0  0  0  0  0
   -0.2862    1.9582   -1.6129 H   0  0  0  0  0  0
   -3.9644   -0.1152    1.5045 H   0  0  0  0  0  0
    1.7891    3.2816   -1.7084 H   0  0  0  0  0  0
   -4.2389   -2.1128    0.0995 H   0  0  0  0  0  0
    3.6680    2.7707   -0.1890 H   0  0  0  0  0  0
  1  2  1  0  0  0
  1  3  2  0  0  0
  1  4  1  0  0  0
  2  5  2  0  0  0
  2  6  1  0  0  0
  3  7  1  0  0  0
  3  8  1  0  0  0
  4  9  2  0  0  0
  4 10  1  0  0  0
  5 11  1  0  0  0
  5 12  1  0  0  0
  6 13  2  0  0  0
  6 18  1  0  0  0
  7 14  2  0  0  0
  7 15  1  0  0  0
  9 14  1  0  0  0
  9 19  1  0  0  0
 11 16  2  0  0  0
 11 17  1  0  0  0
 13 16  1  0  0  0
 13 20  1  0  0  0
 14 21  1  0  0  0
 16 22  1  0  0  0
M  END
>  <Name>
tox-501

>  <substance>
2,2',3,3',6-Pentachlorobiphenyl

>  <CASRN>
52663-60-2

>  <from_NCI>
1

>  <RBA>
0.000000

>  <method>
GST-hERadef

>  <chemical_class>
Polycyclic aromatic hydrocarbon

>  <set>
0

$$$$
tox-502
  Cerius2 12190218273D 1   1.00000                          
 Structure written by MMmdl.
 23 24  0  0  0  0  0  0  0  0999 V2000
   -0.7703   -0.0077   -0.4110 C   0  0  0  0  0  0
   -1.5121   -0.7568   -1.3464 C   0  0  0  0  0  0
   -2.9095   -0.7701   -1.3081 C   0  0  0  0  0  0
   -3.5770   -0.0378   -0.3338 C   0  0  0  0  0  0
   -2.8733    0.7069    0.6046 C   0  0  0  0  0  0
   -1.4763    0.7198    0.5656 C   0  0  0  0  0  0
    0.7035    0.0337   -0.4136 C   0  0  0  0  0  0
    1.4453    0.9423   -1.1991 C   0  0  0  0  0  0
    2.8555    0.9313   -1.1677 C   0  0  0  0  0  0
    3.5343    0.0119   -0.3469 C   0  0  0  0  0  0
    2.7980   -0.8868    0.4361 C   0  0  0  0  0  0
    1.4015   -0.8725    0.4017 C   0  0  0  0  0  0
   -4.9405   -0.0749   -0.3267 O   0  0  0  0  0  0
    3.5499   -2.0515    1.4753 Cl  0  0  0  0  0  0
    5.2746   -0.0178   -0.2950 Cl  0  0  0  0  0  0
    3.7581    2.0581   -2.1471 Cl  0  0  0  0  0  0
    0.5929    2.0827   -2.2071 Cl  0  0  0  0  0  0
   -0.7324   -1.6954   -2.5760 Cl  0  0  0  0  0  0
   -3.4762   -1.3490   -2.0326 H   0  0  0  0  0  0
   -3.3892    1.2814    1.3707 H   0  0  0  0  0  0
   -0.9364    1.3084    1.3072 H   0  0  0  0  0  0
    0.8441   -1.5798    1.0156 H   0  0  0  0  0  0
   -5.2630    0.4847    0.4122 H   0  0  0  0  0  0
  1  2  2  0  0  0
  1  6  1  0  0  0
  1  7  1  0  0  0
  2  3  1  0  0  0
  2 18  1  0  0  0
  3  4  2  0  0  0
  3 19  1  0  0  0
  4  5  1  0  0  0
  4 13  1  0  0  0
  5  6  2  0  0  0
  5 20  1  0  0  0
  6 21  1  0  0  0
  7  8  2  0  0  0
  7 12  1  0  0  0
  8  9  1  0  0  0
  8 17  1  0  0  0
  9 10  2  0  0  0
  9 16  1  0  0  0
 10 11  1  0  0  0
 10 15  1  0  0  0
 11 12  2  0  0  0
 11 14  1  0  0  0
 12 22  1  0  0  0
 13 23  1  0  0  0
M  END
>  <Name>
tox-502

>  <substance>
2,2',3',4',5'-Pentachloro-4-biphenylol

>  <CASRN>
150304-12-4

>  <from_NCI>
0

>  <RBA>
0.060000

>  <method>
hERa,MUC,RUC

>  <chemical_class>
Polycyclic aromatic hydrocarbon

>  <set>
1

$$$$
tox-503
  Cerius2 12190218273D 1   1.00000                          
 Structure written by MMmdl.
 22 23  0  0  0  0  0  0  0  0999 V2000
    0.4291    0.0451   -0.0043 C   0  0  0  0  0  0
   -1.0443    0.0049   -0.0324 C   0  0  0  0  0  0
    1.1909    0.8759   -0.8584 C   0  0  0  0  0  0
    1.1063   -0.7772    0.9119 C   0  0  0  0  0  0
   -1.7652   -0.8286   -0.9107 C   0  0  0  0  0  0
   -1.7694    0.8249    0.8530 C   0  0  0  0  0  0
    2.5988    0.8704   -0.7957 C   0  0  0  0  0  0
    0.3637    1.9151   -1.9892 Cl  0  0  0  0  0  0
    2.4992   -0.7836    0.9768 C   0  0  0  0  0  0
   -3.1640   -0.8341   -0.9052 C   0  0  0  0  0  0
   -0.9619   -1.8801   -2.0273 Cl  0  0  0  0  0  0
   -3.1649    0.8147    0.8524 C   0  0  0  0  0  0
    3.2445    0.0344    0.1270 C   0  0  0  0  0  0
    3.5370    1.8896   -1.8499 Cl  0  0  0  0  0  0
   -3.8646   -0.0106   -0.0231 C   0  0  0  0  0  0
   -4.0271    1.8307    1.9421 Cl  0  0  0  0  0  0
    4.9690   -0.0372    0.2728 Cl  0  0  0  0  0  0
    0.5464   -1.4271    1.5846 H   0  0  0  0  0  0
   -1.2381    1.4772    1.5443 H   0  0  0  0  0  0
    2.9944   -1.4335    1.6956 H   0  0  0  0  0  0
   -3.7170   -1.4784   -1.5855 H   0  0  0  0  0  0
   -4.9521   -0.0216   -0.0265 H   0  0  0  0  0  0
  1  2  1  0  0  0
  1  3  2  0  0  0
  1  4  1  0  0  0
  2  5  2  0  0  0
  2  6  1  0  0  0
  3  7  1  0  0  0
  3  8  1  0  0  0
  4  9  2  0  0  0
  4 18  1  0  0  0
  5 10  1  0  0  0
  5 11  1  0  0  0
  6 12  2  0  0  0
  6 19  1  0  0  0
  7 13  2  0  0  0
  7 14  1  0  0  0
  9 13  1  0  0  0
  9 20  1  0  0  0
 10 15  2  0  0  0
 10 21  1  0  0  0
 12 15  1  0  0  0
 12 16  1  0  0  0
 13 17  1  0  0  0
 15 22  1  0  0  0
M  END
>  <Name>
tox-503

>  <substance>
2,2',3,4,5'-Pentachlorobiphenyl

>  <CASRN>
38380-02-8

>  <from_NCI>
1

>  <RBA>
0.000000

>  <method>
GST-hERadef

>  <chemical_class>
Polycyclic aromatic hydrocarbon

>  <set>
0

$$$$
tox-504
  Cerius2 12190218273D 1   1.00000                          
 Structure written by MMmdl.
 23 24  0  0  0  0  0  0  0  0999 V2000
   -0.7783    0.0370   -0.3235 C   0  0  0  0  0  0
   -1.5584   -0.7210   -1.2207 C   0  0  0  0  0  0
   -2.9561   -0.6911   -1.1631 C   0  0  0  0  0  0
   -3.5836    0.0980   -0.2060 C   0  0  0  0  0  0
   -2.8407    0.8548    0.6913 C   0  0  0  0  0  0
   -1.4455    0.8248    0.6335 C   0  0  0  0  0  0
    0.7002    0.0303   -0.3525 C   0  0  0  0  0  0
    1.4282    0.9507   -1.1476 C   0  0  0  0  0  0
    2.8377    0.9329   -1.1738 C   0  0  0  0  0  0
    3.5272   -0.0096   -0.4002 C   0  0  0  0  0  0
    2.8269   -0.9214    0.3882 C   0  0  0  0  0  0
    1.4315   -0.9019    0.4116 C   0  0  0  0  0  0
   -4.9436    0.1557   -0.1153 O   0  0  0  0  0  0
    0.6434   -2.0754    1.4171 Cl  0  0  0  0  0  0
    5.2571   -0.1049   -0.3705 Cl  0  0  0  0  0  0
    3.7231    2.0658   -2.1548 Cl  0  0  0  0  0  0
    0.5556    2.1201   -2.1092 Cl  0  0  0  0  0  0
   -0.8249   -1.7202   -2.4315 Cl  0  0  0  0  0  0
   -3.5407   -1.2818   -1.8632 H   0  0  0  0  0  0
   -3.3385    1.4697    1.4379 H   0  0  0  0  0  0
   -0.8776    1.4239    1.3447 H   0  0  0  0  0  0
    3.3689   -1.6508    0.9861 H   0  0  0  0  0  0
   -5.3291   -0.4246   -0.8061 H   0  0  0  0  0  0
  1  2  2  0  0  0
  1  6  1  0  0  0
  1  7  1  0  0  0
  2  3  1  0  0  0
  2 18  1  0  0  0
  3  4  2  0  0  0
  3 19  1  0  0  0
  4  5  1  0  0  0
  4 13  1  0  0  0
  5  6  2  0  0  0
  5 20  1  0  0  0
  6 21  1  0  0  0
  7  8  2  0  0  0
  7 12  1  0  0  0
  8  9  1  0  0  0
  8 17  1  0  0  0
  9 10  2  0  0  0
  9 16  1  0  0  0
 10 11  1  0  0  0
 10 15  1  0  0  0
 11 12  2  0  0  0
 11 22  1  0  0  0
 12 14  1  0  0  0
 13 23  1  0  0  0
M  END
>  <Name>
tox-504

>  <substance>
2,2',3',4',6'-Pentachloro-4-biphenylol

>  <CASRN>
150304-10-2

>  <from_NCI>
0

>  <RBA>
0.200000

>  <method>
hERa,MUC,RUC

>  <chemical_class>
Polycyclic aromatic hydrocarbon

>  <set>
0

$$$$
tox-505
  Cerius2 12190218273D 1   1.00000                          
 Structure written by MMmdl.
 22 23  0  0  0  0  0  0  0  0999 V2000
    1.0403    0.0047   -0.0389 C   0  0  0  0  0  0
   -0.4373   -0.0201   -0.0103 C   0  0  0  0  0  0
    1.7766    0.9392    0.7299 C   0  0  0  0  0  0
    1.7630   -0.9103   -0.8350 C   0  0  0  0  0  0
   -1.1651   -0.7968    0.9137 C   0  0  0  0  0  0
   -1.1572    0.7564   -0.9374 C   0  0  0  0  0  0
    3.1823    0.9446    0.6940 C   0  0  0  0  0  0
    0.9321    2.0908    1.7308 Cl  0  0  0  0  0  0
    3.1601   -0.8979   -0.8655 C   0  0  0  0  0  0
    0.9632   -2.0982   -1.8130 Cl  0  0  0  0  0  0
   -2.5629   -0.7960    0.9108 C   0  0  0  0  0  0
   -0.3652   -1.7837    2.0913 Cl  0  0  0  0  0  0
   -2.5542    0.7576   -0.9408 C   0  0  0  0  0  0
    3.8678    0.0274   -0.1026 C   0  0  0  0  0  0
    4.1339    2.0616    1.6133 Cl  0  0  0  0  0  0
   -3.2492   -0.0181   -0.0172 C   0  0  0  0  0  0
   -4.9708   -0.0149   -0.0235 Cl  0  0  0  0  0  0
   -0.6296    1.3693   -1.6677 H   0  0  0  0  0  0
    3.7067   -1.6084   -1.4825 H   0  0  0  0  0  0
   -3.1122   -1.3991    1.6289 H   0  0  0  0  0  0
   -3.0880    1.3663   -1.6673 H   0  0  0  0  0  0
    4.9553    0.0249   -0.1360 H   0  0  0  0  0  0
  1  2  1  0  0  0
  1  3  2  0  0  0
  1  4  1  0  0  0
  2  5  2  0  0  0
  2  6  1  0  0  0
  3  7  1  0  0  0
  3  8  1  0  0  0
  4  9  2  0  0  0
  4 10  1  0  0  0
  5 11  1  0  0  0
  5 12  1  0  0  0
  6 13  2  0  0  0
  6 18  1  0  0  0
  7 14  2  0  0  0
  7 15  1  0  0  0
  9 14  1  0  0  0
  9 19  1  0  0  0
 11 16  2  0  0  0
 11 20  1  0  0  0
 13 16  1  0  0  0
 13 21  1  0  0  0
 14 22  1  0  0  0
 16 17  1  0  0  0
M  END
>  <Name>
tox-505

>  <substance>
2,2',3,4',6-Pentachlorobiphenyl

>  <CASRN>
68194-05-8

>  <from_NCI>
1

>  <RBA>
0.000000

>  <method>
GST-hERadef

>  <chemical_class>
Polycyclic aromatic hydrocarbon

>  <set>
0

$$$$
tox-506
  Cerius2 12190218273D 1   1.00000                          
 Structure written by MMmdl.
 23 24  0  0  0  0  0  0  0  0999 V2000
   -0.4746   -0.0318   -0.4040 C   0  0  0  0  0  0
   -1.2165   -0.7682   -1.3496 C   0  0  0  0  0  0
   -2.6141   -0.7585   -1.3295 C   0  0  0  0  0  0
   -3.2819   -0.0135   -0.3650 C   0  0  0  0  0  0
   -2.5785    0.7225    0.5808 C   0  0  0  0  0  0
   -1.1812    0.7126    0.5603 C   0  0  0  0  0  0
    1.0053   -0.0150   -0.3912 C   0  0  0  0  0  0
    1.7277    0.9530   -1.1325 C   0  0  0  0  0  0
    3.1321    0.9580   -1.1201 C   0  0  0  0  0  0
    3.8327    0.0094   -0.3768 C   0  0  0  0  0  0
    3.1410   -0.9511    0.3597 C   0  0  0  0  0  0
    1.7367   -0.9699    0.3583 C   0  0  0  0  0  0
   -4.6459   -0.0276   -0.3761 O   0  0  0  0  0  0
    0.8879   -2.1801    1.2834 Cl  0  0  0  0  0  0
    4.0867   -2.0936    1.2549 Cl  0  0  0  0  0  0
    4.0671    2.1153   -2.0075 Cl  0  0  0  0  0  0
    0.8677    2.1455   -2.0703 Cl  0  0  0  0  0  0
   -0.4353   -1.7136   -2.5728 Cl  0  0  0  0  0  0
   -3.1809   -1.3281   -2.0612 H   0  0  0  0  0  0
   -3.0951    1.3075    1.3383 H   0  0  0  0  0  0
   -0.6420    1.2942    1.3077 H   0  0  0  0  0  0
    4.9202    0.0185   -0.3716 H   0  0  0  0  0  0
   -4.9686    0.5392    0.3570 H   0  0  0  0  0  0
  1  2  2  0  0  0
  1  6  1  0  0  0
  1  7  1  0  0  0
  2  3  1  0  0  0
  2 18  1  0  0  0
  3  4  2  0  0  0
  3 19  1  0  0  0
  4  5  1  0  0  0
  4 13  1  0  0  0
  5  6  2  0  0  0
  5 20  1  0  0  0
  6 21  1  0  0  0
  7  8  2  0  0  0
  7 12  1  0  0  0
  8  9  1  0  0  0
  8 17  1  0  0  0
  9 10  2  0  0  0
  9 16  1  0  0  0
 10 11  1  0  0  0
 10 22  1  0  0  0
 11 12  2  0  0  0
 11 15  1  0  0  0
 12 14  1  0  0  0
 13 23  1  0  0  0
M  END
>  <Name>
tox-506

>  <substance>
2,2',3',5',6'-Pentachloro-4-biphenylol

>  <CASRN>
150304-11-3

>  <from_NCI>
0

>  <RBA>
0.080000

>  <method>
hERa,MUC,RUC

>  <chemical_class>
Polycyclic aromatic hydrocarbon

>  <set>
0

$$$$
tox-507
  Cerius2 12190218273D 1   1.00000                          
 Structure written by MMmdl.
 22 23  0  0  0  0  0  0  0  0999 V2000
    0.7311    0.0110   -0.0252 C   0  0  0  0  0  0
   -0.7463   -0.0093    0.0206 C   0  0  0  0  0  0
    1.4809    0.9069    0.7758 C   0  0  0  0  0  0
    1.4398   -0.8701   -0.8707 C   0  0  0  0  0  0
   -1.4648   -0.8240    0.9184 C   0  0  0  0  0  0
   -1.4736    0.8116   -0.8629 C   0  0  0  0  0  0
    2.8860    0.9075    0.7238 C   0  0  0  0  0  0
    0.6532    2.0175    1.8353 Cl  0  0  0  0  0  0
    2.8364   -0.8626   -0.9171 C   0  0  0  0  0  0
    0.6220   -2.0070   -1.8932 Cl  0  0  0  0  0  0
   -2.8633   -0.8149    0.9300 C   0  0  0  0  0  0
   -0.6574   -1.8657    2.0408 Cl  0  0  0  0  0  0
   -2.8688    0.8153   -0.8454 C   0  0  0  0  0  0
    3.5576    0.0238   -0.1213 C   0  0  0  0  0  0
    3.8536    1.9778    1.6810 Cl  0  0  0  0  0  0
   -3.5660    0.0059    0.0470 C   0  0  0  0  0  0
   -3.7339    1.8281   -1.9355 Cl  0  0  0  0  0  0
   -0.9447    1.4510   -1.5680 H   0  0  0  0  0  0
    3.3723   -1.5467   -1.5722 H   0  0  0  0  0  0
   -3.4146   -1.4449    1.6247 H   0  0  0  0  0  0
    4.6446    0.0179   -0.1675 H   0  0  0  0  0  0
   -4.6534    0.0061    0.0636 H   0  0  0  0  0  0
  1  2  1  0  0  0
  1  3  2  0  0  0
  1  4  1  0  0  0
  2  5  2  0  0  0
  2  6  1  0  0  0
  3  7  1  0  0  0
  3  8  1  0  0  0
  4  9  2  0  0  0
  4 10  1  0  0  0
  5 11  1  0  0  0
  5 12  1  0  0  0
  6 13  2  0  0  0
  6 18  1  0  0  0
  7 14  2  0  0  0
  7 15  1  0  0  0
  9 14  1  0  0  0
  9 19  1  0  0  0
 11 16  2  0  0  0
 11 20  1  0  0  0
 13 16  1  0  0  0
 13 17  1  0  0  0
 14 21  1  0  0  0
 16 22  1  0  0  0
M  END
>  <Name>
tox-507

>  <substance>
2,2',3,5',6-Pentachlorobiphenyl

>  <CASRN>
38379-99-6

>  <from_NCI>
1

>  <RBA>
0.000000

>  <method>
GST-hERadef

>  <chemical_class>
Polycyclic aromatic hydrocarbon

>  <set>
0

$$$$
tox-508
  Cerius2 12190218273D 1   1.00000                          
 Structure written by MMmdl.
 22 23  0  0  0  0  0  0  0  0999 V2000
    0.7380    0.0082   -0.0338 C   0  0  0  0  0  0
   -0.7342   -0.0200   -0.0205 C   0  0  0  0  0  0
    1.4751    0.8704   -0.8676 C   0  0  0  0  0  0
    1.4469   -0.8574    0.8197 C   0  0  0  0  0  0
   -1.4894   -0.7943   -0.9240 C   0  0  0  0  0  0
   -1.4260    0.7504    0.9317 C   0  0  0  0  0  0
    2.8731    0.8622   -0.8521 C   0  0  0  0  0  0
    0.6920    1.9798   -1.9426 Cl  0  0  0  0  0  0
    2.8457   -0.8682    0.8372 C   0  0  0  0  0  0
   -2.8868   -0.7920   -0.8807 C   0  0  0  0  0  0
   -0.7263   -1.7872   -2.1212 Cl  0  0  0  0  0  0
   -2.8226    0.7533    0.9762 C   0  0  0  0  0  0
    3.5589   -0.0066   -0.0014 C   0  0  0  0  0  0
    3.6305   -1.9683    1.9159 Cl  0  0  0  0  0  0
   -3.5452   -0.0168    0.0694 C   0  0  0  0  0  0
    5.2877    0.0327   -0.0308 Cl  0  0  0  0  0  0
   -5.2658   -0.0116    0.1255 Cl  0  0  0  0  0  0
    0.8982   -1.5327    1.4752 H   0  0  0  0  0  0
   -0.8762    1.3605    1.6482 H   0  0  0  0  0  0
    3.4269    1.5343   -1.5032 H   0  0  0  0  0  0
   -3.4572   -1.3929   -1.5839 H   0  0  0  0  0  0
   -3.3340    1.3592    1.7209 H   0  0  0  0  0  0
  1  2  1  0  0  0
  1  3  2  0  0  0
  1  4  1  0  0  0
  2  5  2  0  0  0
  2  6  1  0  0  0
  3  7  1  0  0  0
  3  8  1  0  0  0
  4  9  2  0  0  0
  4 18  1  0  0  0
  5 10  1  0  0  0
  5 11  1  0  0  0
  6 12  2  0  0  0
  6 19  1  0  0  0
  7 13  2  0  0  0
  7 20  1  0  0  0
  9 13  1  0  0  0
  9 14  1  0  0  0
 10 15  2  0  0  0
 10 21  1  0  0  0
 12 15  1  0  0  0
 12 22  1  0  0  0
 13 16  1  0  0  0
 15 17  1  0  0  0
M  END
>  <Name>
tox-508

>  <substance>
2,2',4,4',5-Pentachlorobiphenyl

>  <CASRN>
38380-01-7

>  <from_NCI>
1

>  <RBA>
0.000000

>  <method>
GST-hERadef

>  <chemical_class>
Polycyclic aromatic hydrocarbon

>  <set>
0

$$$$
tox-509
  Cerius2 12190218273D 1   1.00000                          
 Structure written by MMmdl.
 22 23  0  0  0  0  0  0  0  0999 V2000
    0.4288    0.0118   -0.0444 C   0  0  0  0  0  0
   -1.0436   -0.0105   -0.0456 C   0  0  0  0  0  0
    1.1774    0.8395   -0.9025 C   0  0  0  0  0  0
    1.1256   -0.8236    0.8483 C   0  0  0  0  0  0
   -1.7902   -0.8356   -0.9099 C   0  0  0  0  0  0
   -1.7422    0.8201    0.8509 C   0  0  0  0  0  0
    2.5751    0.8274   -0.8723 C   0  0  0  0  0  0
    0.4084    1.9090   -2.0269 Cl  0  0  0  0  0  0
    2.5242   -0.8385    0.8802 C   0  0  0  0  0  0
   -3.1887   -0.8232   -0.8797 C   0  0  0  0  0  0
   -1.0201   -1.8994   -2.0381 Cl  0  0  0  0  0  0
   -3.1375    0.8277    0.8751 C   0  0  0  0  0  0
    3.2490   -0.0113    0.0173 C   0  0  0  0  0  0
    3.2939   -1.9004    2.0069 Cl  0  0  0  0  0  0
   -3.8631    0.0101    0.0135 C   0  0  0  0  0  0
   -3.9671    1.8559    1.9785 Cl  0  0  0  0  0  0
    4.9781    0.0210    0.0039 Cl  0  0  0  0  0  0
    0.5679   -1.4721    1.5229 H   0  0  0  0  0  0
   -1.1905    1.4670    1.5312 H   0  0  0  0  0  0
    3.1378    1.4727   -1.5425 H   0  0  0  0  0  0
   -3.7618   -1.4613   -1.5491 H   0  0  0  0  0  0
   -4.9505    0.0130    0.0294 H   0  0  0  0  0  0
  1  2  1  0  0  0
  1  3  2  0  0  0
  1  4  1  0  0  0
  2  5  2  0  0  0
  2  6  1  0  0  0
  3  7  1  0  0  0
  3  8  1  0  0  0
  4  9  2  0  0  0
  4 18  1  0  0  0
  5 10  1  0  0  0
  5 11  1  0  0  0
  6 12  2  0  0  0
  6 19  1  0  0  0
  7 13  2  0  0  0
  7 20  1  0  0  0
  9 13  1  0  0  0
  9 14  1  0  0  0
 10 15  2  0  0  0
 10 21  1  0  0  0
 12 15  1  0  0  0
 12 16  1  0  0  0
 13 17  1  0  0  0
 15 22  1  0  0  0
M  END
>  <Name>
tox-509

>  <substance>
2,2',4,5,5'-Pentachlorobiphenyl

>  <CASRN>
37680-73-2

>  <from_NCI>
1

>  <RBA>
0.000000

>  <method>
GST-hERadef

>  <chemical_class>
Polycyclic aromatic hydrocarbon

>  <set>
0

$$$$
tox-510
  Cerius2 12190218273D 1   1.00000                          
 Structure written by MMmdl.
 23 24  0  0  0  0  0  0  0  0999 V2000
   -0.7748    0.0576   -0.3955 C   0  0  0  0  0  0
   -1.5217   -0.7648    0.4755 C   0  0  0  0  0  0
   -2.9209   -0.7351    0.4856 C   0  0  0  0  0  0
   -3.5919    0.1201   -0.3780 C   0  0  0  0  0  0
   -2.8915    0.9435   -1.2487 C   0  0  0  0  0  0
   -1.4938    0.9126   -1.2575 C   0  0  0  0  0  0
    0.7051    0.0244   -0.4043 C   0  0  0  0  0  0
    1.4622    0.8738    0.4301 C   0  0  0  0  0  0
    2.8597    0.8434    0.4227 C   0  0  0  0  0  0
    3.5248   -0.0388   -0.4212 C   0  0  0  0  0  0
    2.8108   -0.8900   -1.2568 C   0  0  0  0  0  0
    1.4134   -0.8578   -1.2476 C   0  0  0  0  0  0
   -4.9548    0.1798   -0.4001 O   0  0  0  0  0  0
    0.5890   -1.9474   -2.3157 Cl  0  0  0  0  0  0
   -0.6838    1.9676   -2.3704 Cl  0  0  0  0  0  0
    0.7004    1.9991    1.5077 Cl  0  0  0  0  0  0
   -0.7442   -1.8549    1.5786 Cl  0  0  0  0  0  0
    5.2461   -0.0774   -0.4315 Cl  0  0  0  0  0  0
   -3.4725   -1.3786    1.1662 H   0  0  0  0  0  0
   -3.4333    1.6071   -1.9182 H   0  0  0  0  0  0
    3.4253    1.5059    1.0732 H   0  0  0  0  0  0
    3.3383   -1.5770   -1.9139 H   0  0  0  0  0  0
   -5.3095   -0.4513    0.2623 H   0  0  0  0  0  0
  1  2  2  0  0  0
  1  6  1  0  0  0
  1  7  1  0  0  0
  2  3  1  0  0  0
  2 17  1  0  0  0
  3  4  2  0  0  0
  3 19  1  0  0  0
  4  5  1  0  0  0
  4 13  1  0  0  0
  5  6  2  0  0  0
  5 20  1  0  0  0
  6 15  1  0  0  0
  7  8  2  0  0  0
  7 12  1  0  0  0
  8  9  1  0  0  0
  8 16  1  0  0  0
  9 10  2  0  0  0
  9 21  1  0  0  0
 10 11  1  0  0  0
 10 18  1  0  0  0
 11 12  2  0  0  0
 11 22  1  0  0  0
 12 14  1  0  0  0
 13 23  1  0  0  0
M  END
>  <Name>
tox-510

>  <substance>
2,2',4',6,6'-Pentachloro-4-biphenylol

>  <CASRN>


>  <from_NCI>
0

>  <RBA>
21.000000

>  <method>
MUC

>  <chemical_class>
Polycyclic aromatic hydrocarbon

>  <set>
0

$$$$
tox-511
  Cerius2 12190218273D 1   1.00000                          
 Structure written by MMmdl.
 22 23  0  0  0  0  0  0  0  0999 V2000
    0.3488    1.9476    1.9534 Cl  0  0  0  0  0  0
    1.1546    0.8607    0.8685 C   0  0  0  0  0  0
    0.4319    0.0039    0.0115 C   0  0  0  0  0  0
    1.1745   -0.8453   -0.8359 C   0  0  0  0  0  0
    2.5723   -0.8390   -0.8277 C   0  0  0  0  0  0
    3.2521    0.0184    0.0299 C   0  0  0  0  0  0
    2.5524    0.8688    0.8785 C   0  0  0  0  0  0
    4.9738    0.0273    0.0411 Cl  0  0  0  0  0  0
    0.3940   -1.9405   -1.9311 Cl  0  0  0  0  0  0
   -1.0482   -0.0037    0.0019 C   0  0  0  0  0  0
   -1.7798    0.8444   -0.8557 C   0  0  0  0  0  0
   -3.1791    0.8361   -0.8638 C   0  0  0  0  0  0
   -3.8790   -0.0184   -0.0165 C   0  0  0  0  0  0
   -3.1813   -0.8657    0.8399 C   0  0  0  0  0  0
   -1.7821   -0.8594    0.8500 C   0  0  0  0  0  0
   -0.9923   -1.9457    1.9468 Cl  0  0  0  0  0  0
   -0.9871    1.9388   -1.9422 Cl  0  0  0  0  0  0
    3.1267   -1.5010   -1.4883 H   0  0  0  0  0  0
    3.0913    1.5364    1.5462 H   0  0  0  0  0  0
   -3.7318    1.4954   -1.5303 H   0  0  0  0  0  0
   -4.9674   -0.0240   -0.0235 H   0  0  0  0  0  0
   -3.7358   -1.5307    1.4993 H   0  0  0  0  0  0
  1  2  1  0  0  0
  2  3  2  0  0  0
  2  7  1  0  0  0
  3  4  1  0  0  0
  3 10  1  0  0  0
  4  5  2  0  0  0
  4  9  1  0  0  0
  5  6  1  0  0  0
  5 18  1  0  0  0
  6  7  2  0  0  0
  6  8  1  0  0  0
  7 19  1  0  0  0
 10 11  2  0  0  0
 10 15  1  0  0  0
 11 12  1  0  0  0
 11 17  1  0  0  0
 12 13  2  0  0  0
 12 20  1  0  0  0
 13 14  1  0  0  0
 13 21  1  0  0  0
 14 15  2  0  0  0
 14 22  1  0  0  0
 15 16  1  0  0  0
M  END
>  <Name>
tox-511

>  <substance>
2,2',4,6,6'-Pentachlorobiphenyl

>  <CASRN>
56558-16-8

>  <from_NCI>
1

>  <RBA>
0.500000

>  <method>
GST-hERadef,MUC

>  <chemical_class>
Polycyclic aromatic hydrocarbon

>  <set>
0

$$$$
tox-512
  Cerius2 12190218273D 1   1.00000                          
 Structure written by MMmdl.
 23 24  0  0  0  0  0  0  0  0999 V2000
   -0.7207    0.0549   -0.4676 C   0  0  0  0  0  0
   -1.4431   -0.8432    0.3383 C   0  0  0  0  0  0
   -2.8469   -0.8803    0.3089 C   0  0  0  0  0  0
   -3.5426   -0.0122   -0.5390 C   0  0  0  0  0  0
   -2.8382    0.8813   -1.3489 C   0  0  0  0  0  0
   -1.4411    0.9132   -1.3140 C   0  0  0  0  0  0
    0.7512    0.1107   -0.4490 C   0  0  0  0  0  0
    1.4788    0.8786    0.4892 C   0  0  0  0  0  0
    2.8880    0.8918    0.4658 C   0  0  0  0  0  0
    3.5692    0.1375   -0.5009 C   0  0  0  0  0  0
    2.8579   -0.6183   -1.4332 C   0  0  0  0  0  0
    1.4637   -0.6306   -1.4071 C   0  0  0  0  0  0
   -0.7377   -1.6925    1.1613 O   0  0  0  0  0  0
    5.2980    0.0954   -0.6032 Cl  0  0  0  0  0  0
   -5.2695    0.0054   -0.6345 Cl  0  0  0  0  0  0
    3.7854    1.8359    1.6213 Cl  0  0  0  0  0  0
   -3.6700   -2.0117    1.3333 Cl  0  0  0  0  0  0
    0.6103    1.8250    1.6704 Cl  0  0  0  0  0  0
   -3.3680    1.5608   -2.0136 H   0  0  0  0  0  0
   -0.9149    1.6205   -1.9549 H   0  0  0  0  0  0
    3.3804   -1.2049   -2.1863 H   0  0  0  0  0  0
    0.9295   -1.2315   -2.1432 H   0  0  0  0  0  0
   -1.3942   -2.2422    1.6416 H   0  0  0  0  0  0
  1  2  2  0  0  0
  1  6  1  0  0  0
  1  7  1  0  0  0
  2  3  1  0  0  0
  2 13  1  0  0  0
  3  4  2  0  0  0
  3 17  1  0  0  0
  4  5  1  0  0  0
  4 15  1  0  0  0
  5  6  2  0  0  0
  5 19  1  0  0  0
  6 20  1  0  0  0
  7  8  2  0  0  0
  7 12  1  0  0  0
  8  9  1  0  0  0
  8 18  1  0  0  0
  9 10  2  0  0  0
  9 16  1  0  0  0
 10 11  1  0  0  0
 10 14  1  0  0  0
 11 12  2  0  0  0
 11 21  1  0  0  0
 12 22  1  0  0  0
 13 23  1  0  0  0
M  END
>  <Name>
tox-512

>  <substance>
2',3,3',4,4'-Pentachloro-2-biphenylol

>  <CASRN>
150975-80-7

>  <from_NCI>
0

>  <RBA>
0.004000

>  <method>
MCF-7 cytosol

>  <chemical_class>
Polycyclic aromatic hydrocarbon

>  <set>
1

$$$$
tox-513
  Cerius2 12190218273D 1   1.00000                          
 Structure written by MMmdl.
 23 24  0  0  0  0  0  0  0  0999 V2000
    0.7757   -0.0112   -0.3860 C   0  0  0  0  0  0
    1.4967    0.7370   -1.3304 C   0  0  0  0  0  0
    2.8932    0.7694   -1.2934 C   0  0  0  0  0  0
    3.5843    0.0577   -0.3089 C   0  0  0  0  0  0
    2.8827   -0.6854    0.6381 C   0  0  0  0  0  0
    1.4854   -0.7172    0.5988 C   0  0  0  0  0  0
   -0.6941   -0.0447   -0.4186 C   0  0  0  0  0  0
   -1.4267   -0.9432   -1.2240 C   0  0  0  0  0  0
   -2.8374   -0.9272   -1.2150 C   0  0  0  0  0  0
   -3.5259   -0.0112   -0.3984 C   0  0  0  0  0  0
   -2.7988    0.8795    0.4019 C   0  0  0  0  0  0
   -1.4019    0.8599    0.3896 C   0  0  0  0  0  0
    4.9524    0.0880   -0.2689 O   0  0  0  0  0  0
   -3.5628    2.0398    1.4374 Cl  0  0  0  0  0  0
   -5.2668    0.0245   -0.3737 Cl  0  0  0  0  0  0
   -3.7287   -2.0437   -2.2167 Cl  0  0  0  0  0  0
    3.7314    1.7024   -2.4811 Cl  0  0  0  0  0  0
   -0.5631   -2.0794   -2.2276 Cl  0  0  0  0  0  0
    0.9650    1.2952   -2.0990 H   0  0  0  0  0  0
    3.4021   -1.2450    1.4127 H   0  0  0  0  0  0
    0.9507   -1.3031    1.3462 H   0  0  0  0  0  0
   -0.8513    1.5602    1.0175 H   0  0  0  0  0  0
    5.2556   -0.4641    0.4822 H   0  0  0  0  0  0
  1  2  2  0  0  0
  1  6  1  0  0  0
  1  7  1  0  0  0
  2  3  1  0  0  0
  2 19  1  0  0  0
  3  4  2  0  0  0
  3 17  1  0  0  0
  4  5  1  0  0  0
  4 13  1  0  0  0
  5  6  2  0  0  0
  5 20  1  0  0  0
  6 21  1  0  0  0
  7  8  2  0  0  0
  7 12  1  0  0  0
  8  9  1  0  0  0
  8 18  1  0  0  0
  9 10  2  0  0  0
  9 16  1  0  0  0
 10 11  1  0  0  0
 10 15  1  0  0  0
 11 12  2  0  0  0
 11 14  1  0  0  0
 12 22  1  0  0  0
 13 23  1  0  0  0
M  END
>  <Name>
tox-513

>  <substance>
2',3,3',4',5'-Pentachloro-4-biphenylol

>  <CASRN>
149589-55-9

>  <from_NCI>
0

>  <RBA>
0.090000

>  <method>
hERa,MUC,RUC

>  <chemical_class>
Polycyclic aromatic hydrocarbon

>  <set>
0

$$$$
tox-514
  Cerius2 12190218273D 1   1.00000                          
 Structure written by MMmdl.
 23 24  0  0  0  0  0  0  0  0999 V2000
   -0.7667   -0.0515   -0.4042 C   0  0  0  0  0  0
   -1.4973   -0.9346   -1.2329 C   0  0  0  0  0  0
   -2.9054   -0.9241   -1.2177 C   0  0  0  0  0  0
   -3.5861   -0.0347   -0.3761 C   0  0  0  0  0  0
   -2.8686    0.8374    0.4452 C   0  0  0  0  0  0
   -1.4751    0.8301    0.4327 C   0  0  0  0  0  0
    0.7032   -0.0132   -0.3771 C   0  0  0  0  0  0
    1.4198    0.7193   -1.3371 C   0  0  0  0  0  0
    2.8187    0.7571   -1.3113 C   0  0  0  0  0  0
    3.5181    0.0636   -0.3183 C   0  0  0  0  0  0
    2.8148   -0.6631    0.6445 C   0  0  0  0  0  0
    1.4178   -0.6997    0.6156 C   0  0  0  0  0  0
   -4.9617   -0.0251   -0.3621 O   0  0  0  0  0  0
   -3.6947    1.9378    1.4877 Cl  0  0  0  0  0  0
    5.2445    0.0672   -0.2270 Cl  0  0  0  0  0  0
    3.6224    1.6791   -2.5344 Cl  0  0  0  0  0  0
   -3.8278   -1.9989   -2.2266 Cl  0  0  0  0  0  0
   -0.6384   -2.0437   -2.2676 Cl  0  0  0  0  0  0
   -0.9294    1.5175    1.0779 H   0  0  0  0  0  0
    0.8814    1.2627   -2.1121 H   0  0  0  0  0  0
    3.3447   -1.2065    1.4239 H   0  0  0  0  0  0
    0.8892   -1.2740    1.3762 H   0  0  0  0  0  0
   -5.2408    0.6594    0.2845 H   0  0  0  0  0  0
  1  2  2  0  0  0
  1  6  1  0  0  0
  1  7  1  0  0  0
  2  3  1  0  0  0
  2 18  1  0  0  0
  3  4  2  0  0  0
  3 17  1  0  0  0
  4  5  1  0  0  0
  4 13  1  0  0  0
  5  6  2  0  0  0
  5 14  1  0  0  0
  6 19  1  0  0  0
  7  8  2  0  0  0
  7 12  1  0  0  0
  8  9  1  0  0  0
  8 20  1  0  0  0
  9 10  2  0  0  0
  9 16  1  0  0  0
 10 11  1  0  0  0
 10 15  1  0  0  0
 11 12  2  0  0  0
 11 21  1  0  0  0
 12 22  1  0  0  0
 13 23  1  0  0  0
M  END
>  <Name>
tox-514

>  <substance>
2,3,3',4',5-Pentachloro-4-biphenylol

>  <CASRN>
152969-11-4

>  <from_NCI>
0

>  <RBA>
0.300000

>  <method>
GST-hERadef,hERa,MCF-7 cytosol

>  <chemical_class>
Polycyclic aromatic hydrocarbon

>  <set>
0

$$$$
tox-515
  Cerius2 12190218273D 1   1.00000                          
 Structure written by MMmdl.
 23 24  0  0  0  0  0  0  0  0999 V2000
    0.7771   -0.0217   -0.3860 C   0  0  0  0  0  0
    1.4799    0.8792   -1.2027 C   0  0  0  0  0  0
    2.8776    0.9110   -1.1915 C   0  0  0  0  0  0
    3.5927    0.0452   -0.3621 C   0  0  0  0  0  0
    2.8999   -0.8510    0.4565 C   0  0  0  0  0  0
    1.5040   -0.8851    0.4483 C   0  0  0  0  0  0
   -0.6929   -0.0530   -0.3987 C   0  0  0  0  0  0
   -1.4370   -0.9423   -1.2083 C   0  0  0  0  0  0
   -2.8461   -0.9307   -1.1797 C   0  0  0  0  0  0
   -3.5111   -0.0260   -0.3392 C   0  0  0  0  0  0
   -2.7835    0.8552    0.4613 C   0  0  0  0  0  0
   -1.3894    0.8412    0.4311 C   0  0  0  0  0  0
    4.9656    0.0829   -0.3574 O   0  0  0  0  0  0
    3.7597   -1.9318    1.4928 Cl  0  0  0  0  0  0
   -5.2383    0.0581   -0.2398 Cl  0  0  0  0  0  0
   -3.7622   -2.0256   -2.1760 Cl  0  0  0  0  0  0
    3.6853    2.0391   -2.2212 Cl  0  0  0  0  0  0
   -0.5866   -2.0533   -2.2506 Cl  0  0  0  0  0  0
    0.9313    1.5585   -1.8534 H   0  0  0  0  0  0
    0.9775   -1.5877    1.0921 H   0  0  0  0  0  0
   -3.2936    1.5596    1.1155 H   0  0  0  0  0  0
   -0.8434    1.5387    1.0667 H   0  0  0  0  0  0
    5.2703   -0.5944    0.2848 H   0  0  0  0  0  0
  1  2  2  0  0  0
  1  6  1  0  0  0
  1  7  1  0  0  0
  2  3  1  0  0  0
  2 19  1  0  0  0
  3  4  2  0  0  0
  3 17  1  0  0  0
  4  5  1  0  0  0
  4 13  1  0  0  0
  5  6  2  0  0  0
  5 14  1  0  0  0
  6 20  1  0  0  0
  7  8  2  0  0  0
  7 12  1  0  0  0
  8  9  1  0  0  0
  8 18  1  0  0  0
  9 10  2  0  0  0
  9 16  1  0  0  0
 10 11  1  0  0  0
 10 15  1  0  0  0
 11 12  2  0  0  0
 11 21  1  0  0  0
 12 22  1  0  0  0
 13 23  1  0  0  0
M  END
>  <Name>
tox-515

>  <substance>
2',3,3',4',5-Pentachloro-4-biphenylol

>  <CASRN>
192190-09-3

>  <from_NCI>
0

>  <RBA>
0.070000

>  <method>
hERa,MCF-7 cytosol,MCF-7 cytosol

>  <chemical_class>
Polycyclic aromatic hydrocarbon

>  <set>
0

$$$$
tox-516
  Cerius2 12190218273D 1   1.00000                          
 Structure written by MMmdl.
 23 24  0  0  0  0  0  0  0  0999 V2000
    0.7826   -0.0510   -0.2986 C   0  0  0  0  0  0
    1.5430    0.7133   -1.2002 C   0  0  0  0  0  0
    2.9370    0.6954   -1.1378 C   0  0  0  0  0  0
    3.5851   -0.0833   -0.1766 C   0  0  0  0  0  0
    2.8490   -0.8448    0.7238 C   0  0  0  0  0  0
    1.4530   -0.8283    0.6626 C   0  0  0  0  0  0
   -0.6915   -0.0368   -0.3579 C   0  0  0  0  0  0
   -1.4085   -0.9581   -1.1620 C   0  0  0  0  0  0
   -2.8176   -0.9383   -1.2114 C   0  0  0  0  0  0
   -3.5182    0.0085   -0.4530 C   0  0  0  0  0  0
   -2.8291    0.9227    0.3423 C   0  0  0  0  0  0
   -1.4341    0.9005    0.3891 C   0  0  0  0  0  0
    4.9493   -0.1321   -0.0775 O   0  0  0  0  0  0
   -0.6619    2.0770    1.4041 Cl  0  0  0  0  0  0
   -5.2483    0.1066   -0.4519 Cl  0  0  0  0  0  0
   -3.6892   -2.0741   -2.2016 Cl  0  0  0  0  0  0
    3.8474    1.6417   -2.2562 Cl  0  0  0  0  0  0
   -0.5234   -2.1334   -2.1056 Cl  0  0  0  0  0  0
    1.0442    1.3227   -1.9515 H   0  0  0  0  0  0
    3.3518   -1.4515    1.4732 H   0  0  0  0  0  0
    0.8874   -1.4293    1.3742 H   0  0  0  0  0  0
   -3.3796    1.6556    0.9281 H   0  0  0  0  0  0
    5.3081    0.4552   -0.7785 H   0  0  0  0  0  0
  1  2  2  0  0  0
  1  6  1  0  0  0
  1  7  1  0  0  0
  2  3  1  0  0  0
  2 19  1  0  0  0
  3  4  2  0  0  0
  3 17  1  0  0  0
  4  5  1  0  0  0
  4 13  1  0  0  0
  5  6  2  0  0  0
  5 20  1  0  0  0
  6 21  1  0  0  0
  7  8  2  0  0  0
  7 12  1  0  0  0
  8  9  1  0  0  0
  8 18  1  0  0  0
  9 10  2  0  0  0
  9 16  1  0  0  0
 10 11  1  0  0  0
 10 15  1  0  0  0
 11 12  2  0  0  0
 11 22  1  0  0  0
 12 14  1  0  0  0
 13 23  1  0  0  0
M  END
>  <Name>
tox-516

>  <substance>
2',3,3',4',6'-Pentachloro-4-biphenylol

>  <CASRN>
192190-10-6

>  <from_NCI>
0

>  <RBA>
0.060000

>  <method>
hERa,MUC,RUC

>  <chemical_class>
Polycyclic aromatic hydrocarbon

>  <set>
0

$$$$
tox-517
  Cerius2 12190218273D 1   1.00000                          
 Structure written by MMmdl.
 23 24  0  0  0  0  0  0  0  0999 V2000
    0.4800    0.0185   -0.3793 C   0  0  0  0  0  0
    1.2036    0.7635   -1.3251 C   0  0  0  0  0  0
    2.6007    0.7698   -1.3044 C   0  0  0  0  0  0
    3.2903    0.0316   -0.3384 C   0  0  0  0  0  0
    2.5869   -0.7123    0.6065 C   0  0  0  0  0  0
    1.1891   -0.7177    0.5848 C   0  0  0  0  0  0
   -0.9964    0.0088   -0.3977 C   0  0  0  0  0  0
   -1.7082   -0.9577   -1.1515 C   0  0  0  0  0  0
   -3.1129   -0.9609   -1.1624 C   0  0  0  0  0  0
   -3.8246   -0.0114   -0.4311 C   0  0  0  0  0  0
   -3.1439    0.9485    0.3159 C   0  0  0  0  0  0
   -1.7395    0.9657    0.3378 C   0  0  0  0  0  0
    4.6593    0.0357   -0.3157 O   0  0  0  0  0  0
   -0.9058    2.1762    1.2770 Cl  0  0  0  0  0  0
   -4.1033    2.0925    1.1950 Cl  0  0  0  0  0  0
   -4.0347   -2.1176   -2.0647 Cl  0  0  0  0  0  0
    3.4416    1.7027   -2.4903 Cl  0  0  0  0  0  0
   -0.8354   -2.1526   -2.0750 Cl  0  0  0  0  0  0
    0.6737    1.3408   -2.0805 H   0  0  0  0  0  0
    3.1055   -1.2930    1.3660 H   0  0  0  0  0  0
    0.6534   -1.3047    1.3306 H   0  0  0  0  0  0
   -4.9121   -0.0193   -0.4438 H   0  0  0  0  0  0
    4.9613   -0.5328    0.4235 H   0  0  0  0  0  0
  1  2  2  0  0  0
  1  6  1  0  0  0
  1  7  1  0  0  0
  2  3  1  0  0  0
  2 19  1  0  0  0
  3  4  2  0  0  0
  3 17  1  0  0  0
  4  5  1  0  0  0
  4 13  1  0  0  0
  5  6  2  0  0  0
  5 20  1  0  0  0
  6 21  1  0  0  0
  7  8  2  0  0  0
  7 12  1  0  0  0
  8  9  1  0  0  0
  8 18  1  0  0  0
  9 10  2  0  0  0
  9 16  1  0  0  0
 10 11  1  0  0  0
 10 22  1  0  0  0
 11 12  2  0  0  0
 11 15  1  0  0  0
 12 14  1  0  0  0
 13 23  1  0  0  0
M  END
>  <Name>
tox-517

>  <substance>
2',3,3',5',6'-Pentachloro-4-biphenylol

>  <CASRN>
189578-02-7

>  <from_NCI>
0

>  <RBA>
0.050000

>  <method>
hERa,MUC,RUC

>  <chemical_class>
Polycyclic aromatic hydrocarbon

>  <set>
0

$$$$
tox-518
  Cerius2 12190218273D 1   1.00000                          
 Structure written by MMmdl.
 22 23  0  0  0  0  0  0  0  0999 V2000
    2.1565   -0.5745   -1.6593 Cl  0  0  0  0  0  0
    0.9624   -1.4410   -0.7289 C   0  0  0  0  0  0
   -0.0050   -0.7246    0.0193 C   0  0  0  0  0  0
   -0.9610   -1.4631    0.7605 C   0  0  0  0  0  0
   -0.9422   -2.8677    0.7494 C   0  0  0  0  0  0
    0.0185   -3.5531    0.0077 C   0  0  0  0  0  0
    0.9672   -2.8458   -0.7290 C   0  0  0  0  0  0
    2.1249   -3.7734   -1.6240 Cl  0  0  0  0  0  0
   -2.0850   -3.8217    1.6358 Cl  0  0  0  0  0  0
   -2.1729   -0.6242    1.6933 Cl  0  0  0  0  0  0
   -0.0165    0.7518    0.0264 C   0  0  0  0  0  0
    0.7183    1.4694    0.9854 C   0  0  0  0  0  0
    0.7088    2.8660    0.9939 C   0  0  0  0  0  0
   -0.0352    3.5640    0.0439 C   0  0  0  0  0  0
   -0.7672    2.8622   -0.9112 C   0  0  0  0  0  0
   -0.7619    1.4671   -0.9252 C   0  0  0  0  0  0
   -1.6866    3.7238   -2.0849 Cl  0  0  0  0  0  0
    0.0276   -4.6406    0.0033 H   0  0  0  0  0  0
    1.3058    0.9411    1.7358 H   0  0  0  0  0  0
    1.2827    3.4090    1.7426 H   0  0  0  0  0  0
   -0.0382    4.6514    0.0562 H   0  0  0  0  0  0
   -1.3389    0.9330   -1.6777 H   0  0  0  0  0  0
  1  2  1  0  0  0
  2  3  2  0  0  0
  2  7  1  0  0  0
  3  4  1  0  0  0
  3 11  1  0  0  0
  4  5  2  0  0  0
  4 10  1  0  0  0
  5  6  1  0  0  0
  5  9  1  0  0  0
  6  7  2  0  0  0
  6 18  1  0  0  0
  7  8  1  0  0  0
 11 12  2  0  0  0
 11 16  1  0  0  0
 12 13  1  0  0  0
 12 19  1  0  0  0
 13 14  2  0  0  0
 13 20  1  0  0  0
 14 15  1  0  0  0
 14 21  1  0  0  0
 15 16  2  0  0  0
 15 17  1  0  0  0
 16 22  1  0  0  0
M  END
>  <Name>
tox-518

>  <substance>
2,3,3',5,6-Pentachlorobiphenyl

>  <CASRN>
74472-36-9

>  <from_NCI>
1

>  <RBA>
0.000000

>  <method>
GST-hERadef

>  <chemical_class>
Polycyclic aromatic hydrocarbon

>  <set>
0

$$$$
tox-519
  Cerius2 12190218273D 1   1.00000                          
 Structure written by MMmdl.
 23 24  0  0  0  0  0  0  0  0999 V2000
   -0.7110   -0.0774    0.3976 C   0  0  0  0  0  0
   -1.4324   -0.9850   -0.4046 C   0  0  0  0  0  0
   -2.8364   -0.9871   -0.3849 C   0  0  0  0  0  0
   -3.5384   -0.0895    0.4319 C   0  0  0  0  0  0
   -2.8314    0.8121    1.2320 C   0  0  0  0  0  0
   -1.4326    0.8151    1.2128 C   0  0  0  0  0  0
    0.7579   -0.0230    0.4198 C   0  0  0  0  0  0
    1.4657    0.6720   -0.5740 C   0  0  0  0  0  0
    2.8642    0.7263   -0.5519 C   0  0  0  0  0  0
    3.5720    0.0868    0.4708 C   0  0  0  0  0  0
    2.8776   -0.6026    1.4669 C   0  0  0  0  0  0
    1.4810   -0.6555    1.4418 C   0  0  0  0  0  0
   -3.5187   -1.8837   -1.1779 O   0  0  0  0  0  0
   -3.6224    1.9503    2.2673 Cl  0  0  0  0  0  0
    5.2983    0.1135    0.5595 Cl  0  0  0  0  0  0
   -5.2720   -0.1335    0.4191 Cl  0  0  0  0  0  0
    3.6566    1.6008   -1.8166 Cl  0  0  0  0  0  0
   -0.5960   -2.1212   -1.4209 Cl  0  0  0  0  0  0
   -0.8914    1.5237    1.8394 H   0  0  0  0  0  0
    0.9208    1.1737   -1.3721 H   0  0  0  0  0  0
    3.4142   -1.1040    2.2696 H   0  0  0  0  0  0
    0.9595   -1.2000    2.2287 H   0  0  0  0  0  0
   -4.4777   -1.7340   -1.0286 H   0  0  0  0  0  0
  1  2  2  0  0  0
  1  6  1  0  0  0
  1  7  1  0  0  0
  2  3  1  0  0  0
  2 18  1  0  0  0
  3  4  2  0  0  0
  3 13  1  0  0  0
  4  5  1  0  0  0
  4 16  1  0  0  0
  5  6  2  0  0  0
  5 14  1  0  0  0
  6 19  1  0  0  0
  7  8  2  0  0  0
  7 12  1  0  0  0
  8  9  1  0  0  0
  8 20  1  0  0  0
  9 10  2  0  0  0
  9 17  1  0  0  0
 10 11  1  0  0  0
 10 15  1  0  0  0
 11 12  2  0  0  0
 11 21  1  0  0  0
 12 22  1  0  0  0
 13 23  1  0  0  0
M  END
>  <Name>
tox-519

>  <substance>
2,3',4,4',5-Pentachloro-3-biphenylol

>  <CASRN>
170946-11-9

>  <from_NCI>
0

>  <RBA>
1.000000

>  <method>
MCF-7 cytosol

>  <chemical_class>
Polycyclic aromatic hydrocarbon

>  <set>
0

$$$$
tox-520
  Cerius2 12190218273D 1   1.00000                          
 Structure written by MMmdl.
 23 24  0  0  0  0  0  0  0  0999 V2000
    0.7275    0.1474   -0.4218 C   0  0  0  0  0  0
    1.4198    1.1011    0.3386 C   0  0  0  0  0  0
    2.8132    1.1399    0.3188 C   0  0  0  0  0  0
    3.5480    0.2364   -0.4567 C   0  0  0  0  0  0
    2.8658   -0.7147   -1.2217 C   0  0  0  0  0  0
    1.4660   -0.7556   -1.2047 C   0  0  0  0  0  0
   -0.7427    0.1019   -0.4082 C   0  0  0  0  0  0
   -1.4788   -0.8031    0.3915 C   0  0  0  0  0  0
   -2.8881   -0.8051    0.3618 C   0  0  0  0  0  0
   -3.5616    0.1021   -0.4691 C   0  0  0  0  0  0
   -2.8424    0.9996   -1.2588 C   0  0  0  0  0  0
   -1.4482    0.9989   -1.2277 C   0  0  0  0  0  0
    3.4186    2.0987    1.0899 O   0  0  0  0  0  0
    3.6908   -1.8696   -2.2114 Cl  0  0  0  0  0  0
   -5.2895    0.1701   -0.5690 Cl  0  0  0  0  0  0
    5.2769    0.3358   -0.4379 Cl  0  0  0  0  0  0
   -3.7943   -1.9198    1.3453 Cl  0  0  0  0  0  0
   -0.6197   -1.9140    1.4269 Cl  0  0  0  0  0  0
    0.8729    1.8155    0.9516 H   0  0  0  0  0  0
    0.9430   -1.4985   -1.8055 H   0  0  0  0  0  0
   -3.3589    1.7064   -1.9053 H   0  0  0  0  0  0
   -0.9089    1.7086   -1.8555 H   0  0  0  0  0  0
    4.3884    1.9965    0.9687 H   0  0  0  0  0  0
  1  2  2  0  0  0
  1  6  1  0  0  0
  1  7  1  0  0  0
  2  3  1  0  0  0
  2 19  1  0  0  0
  3  4  2  0  0  0
  3 13  1  0  0  0
  4  5  1  0  0  0
  4 16  1  0  0  0
  5  6  2  0  0  0
  5 14  1  0  0  0
  6 20  1  0  0  0
  7  8  2  0  0  0
  7 12  1  0  0  0
  8  9  1  0  0  0
  8 18  1  0  0  0
  9 10  2  0  0  0
  9 17  1  0  0  0
 10 11  1  0  0  0
 10 15  1  0  0  0
 11 12  2  0  0  0
 11 21  1  0  0  0
 12 22  1  0  0  0
 13 23  1  0  0  0
M  END
>  <Name>
tox-520

>  <substance>
2',3',4,4',5-Pentachloro-3-biphenylol

>  <CASRN>
150975-81-8

>  <from_NCI>
0

>  <RBA>
2.000000

>  <method>
MCF-7 cytosol

>  <chemical_class>
Polycyclic aromatic hydrocarbon

>  <set>
0

$$$$
tox-521
  Cerius2 12190218273D 1   1.00000                          
 Structure written by MMmdl.
 22 23  0  0  0  0  0  0  0  0999 V2000
    2.1946   -0.6107   -1.6220 Cl  0  0  0  0  0  0
    0.9869   -1.4664   -0.6922 C   0  0  0  0  0  0
    0.0147   -0.7260    0.0263 C   0  0  0  0  0  0
   -0.9456   -1.4463    0.7660 C   0  0  0  0  0  0
   -0.9423   -2.8420    0.7927 C   0  0  0  0  0  0
    0.0213   -3.5542    0.0806 C   0  0  0  0  0  0
    0.9928   -2.8763   -0.6670 C   0  0  0  0  0  0
    2.1910   -3.7771   -1.5523 Cl  0  0  0  0  0  0
   -0.0479   -5.2833    0.1696 Cl  0  0  0  0  0  0
   -2.1823   -0.6455    1.6826 Cl  0  0  0  0  0  0
    0.0011    0.7489    0.0068 C   0  0  0  0  0  0
    0.7222    1.4851    0.9617 C   0  0  0  0  0  0
    0.7090    2.8828    0.9441 C   0  0  0  0  0  0
   -0.0261    3.5561   -0.0286 C   0  0  0  0  0  0
   -0.7482    2.8443   -0.9835 C   0  0  0  0  0  0
   -0.7347    1.4466   -0.9655 C   0  0  0  0  0  0
   -0.0425    5.2772   -0.0506 Cl  0  0  0  0  0  0
   -1.6938   -3.3749    1.3711 H   0  0  0  0  0  0
    1.3014    0.9725    1.7287 H   0  0  0  0  0  0
    1.2742    3.4337    1.6921 H   0  0  0  0  0  0
   -1.3241    3.3651   -1.7448 H   0  0  0  0  0  0
   -1.3047    0.9036   -1.7185 H   0  0  0  0  0  0
  1  2  1  0  0  0
  2  3  2  0  0  0
  2  7  1  0  0  0
  3  4  1  0  0  0
  3 11  1  0  0  0
  4  5  2  0  0  0
  4 10  1  0  0  0
  5  6  1  0  0  0
  5 18  1  0  0  0
  6  7  2  0  0  0
  6  9  1  0  0  0
  7  8  1  0  0  0
 11 12  2  0  0  0
 11 16  1  0  0  0
 12 13  1  0  0  0
 12 19  1  0  0  0
 13 14  2  0  0  0
 13 20  1  0  0  0
 14 15  1  0  0  0
 14 17  1  0  0  0
 15 16  2  0  0  0
 15 21  1  0  0  0
 16 22  1  0  0  0
M  END
>  <Name>
tox-521

>  <substance>
2,3,4,4',6-Pentachlorobiphenyl

>  <CASRN>
74472-38-1

>  <from_NCI>
1

>  <RBA>
0.000000

>  <method>
GST-hERadef

>  <chemical_class>
Polycyclic aromatic hydrocarbon

>  <set>
0

$$$$
tox-522
  Cerius2 12190218273D 1   1.00000                          
 Structure written by MMmdl.
 23 24  0  0  0  0  0  0  0  0999 V2000
    0.7772   -0.0064   -0.4001 C   0  0  0  0  0  0
    1.4974    0.9389   -1.1487 C   0  0  0  0  0  0
    2.8951    0.9602   -1.1171 C   0  0  0  0  0  0
    3.5936    0.0390   -0.3346 C   0  0  0  0  0  0
    2.8841   -0.9019    0.4165 C   0  0  0  0  0  0
    1.4882   -0.9253    0.3876 C   0  0  0  0  0  0
   -0.6921   -0.0253   -0.4342 C   0  0  0  0  0  0
   -1.4274   -0.9572   -1.1914 C   0  0  0  0  0  0
   -2.8258   -0.9398   -1.1909 C   0  0  0  0  0  0
   -3.5144    0.0103   -0.4350 C   0  0  0  0  0  0
   -2.8037    0.9464    0.3214 C   0  0  0  0  0  0
   -1.4046    0.9262    0.3190 C   0  0  0  0  0  0
    4.9665    0.0667   -0.3095 O   0  0  0  0  0  0
   -3.5915    2.1513    1.2793 Cl  0  0  0  0  0  0
    3.7228   -2.0516    1.3942 Cl  0  0  0  0  0  0
   -5.2430   -0.0223   -0.4781 Cl  0  0  0  0  0  0
    3.7236    2.1451   -2.0630 Cl  0  0  0  0  0  0
   -0.6432   -2.1546   -2.1671 Cl  0  0  0  0  0  0
    0.9627    1.6610   -1.7640 H   0  0  0  0  0  0
    0.9492   -1.6629    0.9800 H   0  0  0  0  0  0
   -3.3774   -1.6666   -1.7824 H   0  0  0  0  0  0
   -0.8586    1.6577    0.9137 H   0  0  0  0  0  0
    5.2582   -0.6519    0.2925 H   0  0  0  0  0  0
  1  2  2  0  0  0
  1  6  1  0  0  0
  1  7  1  0  0  0
  2  3  1  0  0  0
  2 19  1  0  0  0
  3  4  2  0  0  0
  3 17  1  0  0  0
  4  5  1  0  0  0
  4 13  1  0  0  0
  5  6  2  0  0  0
  5 15  1  0  0  0
  6 20  1  0  0  0
  7  8  2  0  0  0
  7 12  1  0  0  0
  8  9  1  0  0  0
  8 18  1  0  0  0
  9 10  2  0  0  0
  9 21  1  0  0  0
 10 11  1  0  0  0
 10 16  1  0  0  0
 11 12  2  0  0  0
 11 14  1  0  0  0
 12 22  1  0  0  0
 13 23  1  0  0  0
M  END
>  <Name>
tox-522

>  <substance>
2',3,4',5,5'-Pentachloro-4-biphenylol

>  <CASRN>
149589-56-0

>  <from_NCI>
0

>  <RBA>
0.800000

>  <method>
MCF-7 cytosol

>  <chemical_class>
Polycyclic aromatic hydrocarbon

>  <set>
0

$$$$
tox-523
  Cerius2 12190218273D 1   1.00000                          
 Structure written by MMmdl.
 22 23  0  0  0  0  0  0  0  0999 V2000
   -3.0922    2.0790    0.0557 C   0  0  0  0  0  0
   -3.0296    0.7935   -0.4885 C   0  0  0  0  0  0
   -1.8129    0.0992   -0.5062 C   0  0  0  0  0  0
   -0.6397    0.6718    0.0161 C   0  0  0  0  0  0
   -0.7254    1.9651    0.5576 C   0  0  0  0  0  0
   -1.9380    2.6626    0.5783 C   0  0  0  0  0  0
    0.6390   -0.0612   -0.0041 C   0  0  0  0  0  0
    0.7269   -1.3803    0.4672 C   0  0  0  0  0  0
    1.9413   -2.0796    0.4496 C   0  0  0  0  0  0
    3.1035   -1.4736   -0.0433 C   0  0  0  0  0  0
    3.0274   -0.1577   -0.5164 C   0  0  0  0  0  0
    1.8101    0.5364   -0.4954 C   0  0  0  0  0  0
   -4.4169    0.0055   -1.1574 Cl  0  0  0  0  0  0
   -4.5584    2.9927    0.1112 Cl  0  0  0  0  0  0
    4.4053    0.6816   -1.1487 Cl  0  0  0  0  0  0
    4.6103   -2.3372   -0.0674 Cl  0  0  0  0  0  0
    1.9285   -3.7013    1.0603 Cl  0  0  0  0  0  0
   -1.7790   -0.8979   -0.9432 H   0  0  0  0  0  0
    0.1563    2.4447    0.9828 H   0  0  0  0  0  0
   -1.9687    3.6617    1.0079 H   0  0  0  0  0  0
   -0.1607   -1.8707    0.8657 H   0  0  0  0  0  0
    1.7749    1.5558   -0.8786 H   0  0  0  0  0  0
  1  2  2  0  0  0
  1  6  1  0  0  0
  1 14  1  0  0  0
  2  3  1  0  0  0
  2 13  1  0  0  0
  3  4  2  0  0  0
  3 18  1  0  0  0
  4  5  1  0  0  0
  4  7  1  0  0  0
  5  6  2  0  0  0
  5 19  1  0  0  0
  6 20  1  0  0  0
  7  8  2  0  0  0
  7 12  1  0  0  0
  8  9  1  0  0  0
  8 21  1  0  0  0
  9 10  2  0  0  0
  9 17  1  0  0  0
 10 11  1  0  0  0
 10 16  1  0  0  0
 11 12  2  0  0  0
 11 15  1  0  0  0
 12 22  1  0  0  0
M  END
>  <Name>
tox-523

>  <substance>
3,3',4,4',5-Pentachlorobiphenyl

>  <CASRN>
57465-28-8

>  <from_NCI>
1

>  <RBA>
0.000000

>  <method>
GST-hERadef

>  <chemical_class>
Polycyclic aromatic hydrocarbon

>  <set>
0

$$$$
tox-524
  Cerius2 12190218273D 1   1.00000                          
 Structure written by MMmdl.
 23 24  0  0  0  0  0  0  0  0999 V2000
   -3.0259   -0.5040    0.5185 C   0  0  0  0  0  0
   -3.0910   -1.8115    0.0217 C   0  0  0  0  0  0
   -1.9247   -2.3973   -0.4856 C   0  0  0  0  0  0
   -0.7170   -1.6859   -0.4941 C   0  0  0  0  0  0
   -0.6395   -0.3746    0.0009 C   0  0  0  0  0  0
   -1.8152    0.2022    0.5065 C   0  0  0  0  0  0
   -4.4099    0.3102    1.1704 Cl  0  0  0  0  0  0
   -4.5895   -2.6898    0.0344 Cl  0  0  0  0  0  0
   -1.8985   -4.0076   -1.1256 Cl  0  0  0  0  0  0
    0.6319    0.3705   -0.0097 C   0  0  0  0  0  0
    1.8127   -0.1928    0.4773 C   0  0  0  0  0  0
    3.0280    0.5229    0.4664 C   0  0  0  0  0  0
    3.1636    1.8544   -0.0307 C   0  0  0  0  0  0
    1.9295    2.3831   -0.5166 C   0  0  0  0  0  0
    0.7113    1.6724   -0.5073 C   0  0  0  0  0  0
    1.8386    4.0002   -1.1806 Cl  0  0  0  0  0  0
    4.4027   -0.3418    1.1196 Cl  0  0  0  0  0  0
    4.2735    2.5050   -0.0398 O   0  0  0  0  0  0
    0.1738   -2.1609   -0.9042 H   0  0  0  0  0  0
   -1.7892    1.2144    0.9090 H   0  0  0  0  0  0
    1.7995   -1.2026    0.8862 H   0  0  0  0  0  0
   -0.1812    2.1513   -0.9087 H   0  0  0  0  0  0
    4.1470    3.2764   -0.3737 H   0  0  0  0  0  0
  1  2  2  0  0  0
  1  6  1  0  0  0
  1  7  1  0  0  0
  2  3  1  0  0  0
  2  8  1  0  0  0
  3  4  2  0  0  0
  3  9  1  0  0  0
  4  5  1  0  0  0
  4 19  1  0  0  0
  5  6  2  0  0  0
  5 10  1  0  0  0
  6 20  1  0  0  0
 10 11  2  0  0  0
 10 15  1  0  0  0
 11 12  1  0  0  0
 11 21  1  0  0  0
 12 13  2  0  0  0
 12 17  1  0  0  0
 13 14  1  0  0  0
 13 18  1  0  0  0
 14 15  2  0  0  0
 14 16  1  0  0  0
 15 22  1  0  0  0
 18 23  1  0  0  0
M  END
>  <Name>
tox-524

>  <substance>
3,3',4',5,5'-Pentachloro-4-biphenylol

>  <CASRN>
130689-92-8

>  <from_NCI>
1

>  <RBA>
0.020000

>  <method>
MCF-7 cytosol

>  <chemical_class>
Polycyclic aromatic hydrocarbon

>  <set>
0

$$$$
tox-525
  Cerius2 12190218273D 1   1.00000                          
 Structure written by MMmdl.
 29 30  0  0  0  0  0  0  0  0999 V2000
    4.7135    0.0120    1.1718 C   0  0  0  0  0  0
    4.0113    1.0543    0.5691 C   0  0  0  0  0  0
    2.6155    1.0433    0.5587 C   0  0  0  0  0  0
    1.9098   -0.0098    1.1561 C   0  0  0  0  0  0
    0.3998   -0.0318    1.1300 C   0  0  0  0  0  0
   -0.1377   -0.7512   -0.1106 C   0  0  0  0  0  0
   -1.6461   -0.7745   -0.1386 C   0  0  0  0  0  0
   -2.3679    0.2490   -0.7504 C   0  0  0  0  0  0
   -3.7735    0.2246   -0.7585 C   0  0  0  0  0  0
   -4.5313   -0.8022   -0.1630 C   0  0  0  0  0  0
   -5.8029   -0.8158   -0.1761 O   0  0  0  0  0  0
   -3.7641   -1.8119    0.4497 C   0  0  0  0  0  0
   -2.3584   -1.8070    0.4692 C   0  0  0  0  0  0
    2.6251   -1.0562    1.7539 C   0  0  0  0  0  0
    4.0210   -1.0432    1.7630 C   0  0  0  0  0  0
    5.8021    0.0211    1.1789 H   0  0  0  0  0  0
    4.5518    1.8773    0.1045 H   0  0  0  0  0  0
    2.0810    1.8633    0.0800 H   0  0  0  0  0  0
    0.0216    0.9983    1.1691 H   0  0  0  0  0  0
    0.0292   -0.5148    2.0438 H   0  0  0  0  0  0
    0.2403   -1.7814   -0.1496 H   0  0  0  0  0  0
    0.2340   -0.2681   -1.0239 H   0  0  0  0  0  0
   -1.8514    1.0800   -1.2297 H   0  0  0  0  0  0
   -4.2855    1.0537   -1.2560 H   0  0  0  0  0  0
   -4.2685   -2.6493    0.9409 H   0  0  0  0  0  0
   -1.8343   -2.6225    0.9665 H   0  0  0  0  0  0
    2.0982   -1.8900    2.2166 H   0  0  0  0  0  0
    4.5690   -1.8591    2.2313 H   0  0  0  0  0  0
   -6.0830   -1.5083    0.2294 H   0  0  0  0  0  0
  1  2  2  0  0  0
  1 15  1  0  0  0
  1 16  1  0  0  0
  2  3  1  0  0  0
  2 17  1  0  0  0
  3  4  2  0  0  0
  3 18  1  0  0  0
  4  5  1  0  0  0
  4 14  1  0  0  0
  5  6  1  0  0  0
  5 19  1  0  0  0
  5 20  1  0  0  0
  6  7  1  0  0  0
  6 21  1  0  0  0
  6 22  1  0  0  0
  7  8  2  0  0  0
  7 13  1  0  0  0
  8  9  1  0  0  0
  8 23  1  0  0  0
  9 10  2  0  0  0
  9 24  1  0  0  0
 10 11  1  0  0  0
 10 12  1  0  0  0
 11 29  1  0  0  0
 12 13  2  0  0  0
 12 25  1  0  0  0
 13 26  1  0  0  0
 14 15  2  0  0  0
 14 27  1  0  0  0
 15 28  1  0  0  0
M  END
>  <Name>
tox-525

>  <substance>
4-Phenethylphenol

>  <CASRN>
6335-83-7

>  <from_NCI>
1

>  <RBA>
0.002000

>  <method>
RUC

>  <chemical_class>
Alkylphenol

>  <set>
0

$$$$
tox-526
  Cerius2 12190218273D 1   1.00000                          
 Structure written by MMmdl.
 63 66  0  0  0  0  0  0  0  0999 V2000
   -3.5488    2.4050    2.7736 C   0  0  0  0  0  0
   -2.6022    2.5971    1.5802 C   0  0  0  0  0  0
   -1.4255    1.6123    1.4533 C   0  0  0  0  0  0
   -3.4106    1.2886    3.5142 C   0  0  0  0  0  0
   -2.3999    0.1785    3.2976 C   0  0  0  0  0  0
   -1.6793   -0.0848    4.6633 C   0  0  0  0  0  0
   -0.3776   -0.9282    4.6410 C   0  0  0  0  0  0
   -0.1396   -1.5566    3.2766 C   0  0  0  0  0  0
    1.0299   -2.5445    3.1291 C   0  0  0  0  0  0
    1.6688   -3.2024    4.3436 C   0  0  0  0  0  0
    2.9257   -3.8762    3.7621 C   0  0  0  0  0  0
    3.0872   -3.3434    2.3227 C   0  0  0  0  0  0
    2.2202   -2.0668    2.2806 C   0  0  0  0  0  0
    3.0640   -0.9263    2.9017 C   0  0  0  0  0  0
    1.7180   -1.6776    0.8700 C   0  0  0  0  0  0
    0.2652   -1.1295    0.8469 C   0  0  0  0  0  0
   -0.1190   -0.4499    2.1814 C   0  0  0  0  0  0
   -1.3657    0.4728    2.2033 C   0  0  0  0  0  0
   -4.3719    3.3499    2.9102 O   0  0  0  0  0  0
   -0.4112    1.9996    0.5759 N   0  0  0  0  0  0
   -0.3910    3.1393   -0.3300 C   0  0  0  0  0  0
    0.8135    3.0387   -1.2673 C   0  0  0  0  0  0
    0.8624    4.2143   -2.2447 C   0  0  0  0  0  0
    2.0660    4.1093   -3.1809 C   0  0  0  0  0  0
    2.1178    5.2758   -4.1544 C   0  0  0  0  0  0
   -3.1493   -0.8551    2.9394 O   0  0  0  0  0  0
   -2.1751    3.6084    1.6553 H   0  0  0  0  0  0
   -4.0846    1.1530    4.3664 H   0  0  0  0  0  0
   -2.3730   -0.5516    5.3798 H   0  0  0  0  0  0
   -1.4140    0.8808    5.1203 H   0  0  0  0  0  0
   -0.4478   -1.7010    5.4153 H   0  0  0  0  0  0
    0.4723   -0.2900    4.9128 H   0  0  0  0  0  0
   -1.0161   -2.1936    3.0929 H   0  0  0  0  0  0
    0.5854   -3.3860    2.5654 H   0  0  0  0  0  0
    1.0035   -3.9336    4.8136 H   0  0  0  0  0  0
    1.9525   -2.4690    5.1058 H   0  0  0  0  0  0
    2.8241   -4.9667    3.7553 H   0  0  0  0  0  0
    3.8023   -3.6324    4.3724 H   0  0  0  0  0  0
    2.7095   -4.0968    1.6198 H   0  0  0  0  0  0
    4.1379   -3.1636    2.0719 H   0  0  0  0  0  0
    3.9207   -0.6976    2.2562 H   0  0  0  0  0  0
    3.4741   -1.1933    3.8811 H   0  0  0  0  0  0
    2.5167    0.0047    3.0421 H   0  0  0  0  0  0
    1.7608   -2.5387    0.1917 H   0  0  0  0  0  0
    2.3857   -0.9246    0.4327 H   0  0  0  0  0  0
   -0.4255   -1.9636    0.6620 H   0  0  0  0  0  0
    0.1542   -0.4722   -0.0197 H   0  0  0  0  0  0
    0.6858    0.2448    2.4374 H   0  0  0  0  0  0
    0.4528    1.4618    0.6144 H   0  0  0  0  0  0
   -0.3331    4.0679    0.2485 H   0  0  0  0  0  0
   -1.3129    3.1597   -0.9222 H   0  0  0  0  0  0
    0.7671    2.0947   -1.8251 H   0  0  0  0  0  0
    1.7382    3.0104   -0.6769 H   0  0  0  0  0  0
    0.9135    5.1557   -1.6842 H   0  0  0  0  0  0
   -0.0615    4.2395   -2.8354 H   0  0  0  0  0  0
    2.0175    3.1712   -3.7460 H   0  0  0  0  0  0
    2.9926    4.0879   -2.5955 H   0  0  0  0  0  0
    2.9859    5.1805   -4.8142 H   0  0  0  0  0  0
    2.1992    6.2284   -3.6213 H   0  0  0  0  0  0
    1.2188    5.3064   -4.7782 H   0  0  0  0  0  0
   -3.1830    2.5489    0.6478 H   0  0  0  0  0  0
   -4.8706    3.1965    3.5812 H   0  0  0  0  0  0
   -2.6521   -1.5297    2.7969 H   0  0  0  0  0  0
  1  2  1  0  0  0
  1  4  2  0  0  0
  1 19  1  0  0  0
  2  3  1  0  0  0
  2 27  1  0  0  0
  2 61  1  0  0  0
  3 18  2  0  0  0
  3 20  1  0  0  0
  4  5  1  0  0  0
  4 28  1  0  0  0
  5  6  1  0  0  0
  5 18  1  0  0  0
  5 26  1  0  0  0
  6  7  1  0  0  0
  6 29  1  0  0  0
  6 30  1  0  0  0
  7  8  1  0  0  0
  7 31  1  0  0  0
  7 32  1  0  0  0
  8  9  1  0  0  0
  8 17  1  0  0  0
  8 33  1  0  0  0
  9 10  1  0  0  0
  9 13  1  0  0  0
  9 34  1  0  0  0
 10 11  1  0  0  0
 10 35  1  0  0  0
 10 36  1  0  0  0
 11 12  1  0  0  0
 11 37  1  0  0  0
 11 38  1  0  0  0
 12 13  1  0  0  0
 12 39  1  0  0  0
 12 40  1  0  0  0
 13 14  1  0  0  0
 13 15  1  0  0  0
 14 41  1  0  0  0
 14 42  1  0  0  0
 14 43  1  0  0  0
 15 16  1  0  0  0
 15 44  1  0  0  0
 15 45  1  0  0  0
 16 17  1  0  0  0
 16 46  1  0  0  0
 16 47  1  0  0  0
 17 18  1  0  0  0
 17 48  1  0  0  0
 19 62  1  0  0  0
 20 21  1  0  0  0
 20 49  1  0  0  0
 21 22  1  0  0  0
 21 50  1  0  0  0
 21 51  1  0  0  0
 22 23  1  0  0  0
 22 52  1  0  0  0
 22 53  1  0  0  0
 23 24  1  0  0  0
 23 54  1  0  0  0
 23 55  1  0  0  0
 24 25  1  0  0  0
 24 56  1  0  0  0
 24 57  1  0  0  0
 25 58  1  0  0  0
 25 59  1  0  0  0
 25 60  1  0  0  0
 26 63  1  0  0  0
M  END
>  <Name>
tox-526

>  <substance>
Pentolame

>  <CASRN>
150748-24-6

>  <from_NCI>
1

>  <RBA>
0.040000

>  <method>
RUC

>  <chemical_class>
Steroid, phenolic

>  <set>
2

$$$$
tox-527
  Cerius2 12190218273D 1   1.00000                          
 Structure written by MMmdl.
 46 48  0  0  0  0  0  0  0  0999 V2000
   -3.7241   -2.8919   -0.6446 C   0  0  0  0  0  0
   -2.6181   -1.8724   -0.8134 C   0  0  0  0  0  0
   -3.7012   -2.0014   -1.8783 C   0  0  0  0  0  0
   -3.4854   -4.3397   -0.7352 C   0  0  0  0  0  0
   -1.1945   -2.1817   -1.1105 C   0  0  0  0  0  0
   -4.7306   -0.8968   -1.9485 C   0  0  0  0  0  0
   -3.3530   -2.5586   -3.2396 C   0  0  0  0  0  0
   -2.9449   -5.1360    0.2005 C   0  0  0  0  0  0
   -0.4293   -1.0653   -0.9816 O   0  0  0  0  0  0
   -0.7793   -3.2852   -1.4396 O   0  0  0  0  0  0
   -2.7716   -6.8320   -0.0841 Cl  0  0  0  0  0  0
   -2.4083   -4.5264    1.7255 Cl  0  0  0  0  0  0
    0.9550   -1.2751   -1.2786 C   0  0  0  0  0  0
    1.6689    0.0379   -1.0850 C   0  0  0  0  0  0
    2.3759    0.2990    0.0975 C   0  0  0  0  0  0
    1.6115    1.0291   -2.0759 C   0  0  0  0  0  0
    3.0140    1.5278    0.2814 C   0  0  0  0  0  0
    2.2689    2.2482   -1.8986 C   0  0  0  0  0  0
    3.7265    1.6900    1.4485 O   0  0  0  0  0  0
    2.9792    2.4962   -0.7241 C   0  0  0  0  0  0
    3.5818    2.8841    2.1168 C   0  0  0  0  0  0
    4.7481    3.5170    2.5487 C   0  0  0  0  0  0
    2.3314    3.4211    2.4337 C   0  0  0  0  0  0
    4.6661    4.7110    3.2660 C   0  0  0  0  0  0
    2.2528    4.6157    3.1517 C   0  0  0  0  0  0
    3.4191    5.2614    3.5640 C   0  0  0  0  0  0
   -4.4758   -2.6526    0.1066 H   0  0  0  0  0  0
   -2.7029   -1.0104   -0.1527 H   0  0  0  0  0  0
   -3.8189   -4.8159   -1.6558 H   0  0  0  0  0  0
   -4.3613   -0.0720   -2.5669 H   0  0  0  0  0  0
   -4.9693   -0.4923   -0.9588 H   0  0  0  0  0  0
   -5.6599   -1.2716   -2.3899 H   0  0  0  0  0  0
   -2.9293   -1.7697   -3.8704 H   0  0  0  0  0  0
   -4.2545   -2.9398   -3.7313 H   0  0  0  0  0  0
   -2.6289   -3.3767   -3.2052 H   0  0  0  0  0  0
    1.0748   -1.6122   -2.3157 H   0  0  0  0  0  0
    1.3726   -2.0381   -0.6102 H   0  0  0  0  0  0
    2.4290   -0.4533    0.8829 H   0  0  0  0  0  0
    1.0574    0.8530   -2.9977 H   0  0  0  0  0  0
    2.2306    3.0048   -2.6805 H   0  0  0  0  0  0
    3.5025    3.4423   -0.6073 H   0  0  0  0  0  0
    5.7212    3.0860    2.3237 H   0  0  0  0  0  0
    1.4161    2.9166    2.1334 H   0  0  0  0  0  0
    5.5751    5.2110    3.5960 H   0  0  0  0  0  0
    1.2807    5.0408    3.3952 H   0  0  0  0  0  0
    3.3559    6.1922    4.1254 H   0  0  0  0  0  0
  1  2  1  0  0  0
  1  3  1  0  0  0
  1  4  1  0  0  0
  1 27  1  0  0  0
  2  3  1  0  0  0
  2  5  1  0  0  0
  2 28  1  0  0  0
  3  6  1  0  0  0
  3  7  1  0  0  0
  4  8  2  0  0  0
  4 29  1  0  0  0
  5  9  1  0  0  0
  5 10  2  0  0  0
  6 30  1  0  0  0
  6 31  1  0  0  0
  6 32  1  0  0  0
  7 33  1  0  0  0
  7 34  1  0  0  0
  7 35  1  0  0  0
  8 11  1  0  0  0
  8 12  1  0  0  0
  9 13  1  0  0  0
 13 14  1  0  0  0
 13 36  1  0  0  0
 13 37  1  0  0  0
 14 15  2  0  0  0
 14 16  1  0  0  0
 15 17  1  0  0  0
 15 38  1  0  0  0
 16 18  2  0  0  0
 16 39  1  0  0  0
 17 19  1  0  0  0
 17 20  2  0  0  0
 18 20  1  0  0  0
 18 40  1  0  0  0
 19 21  1  0  0  0
 20 41  1  0  0  0
 21 22  2  0  0  0
 21 23  1  0  0  0
 22 24  1  0  0  0
 22 42  1  0  0  0
 23 25  2  0  0  0
 23 43  1  0  0  0
 24 26  2  0  0  0
 24 44  1  0  0  0
 25 26  1  0  0  0
 25 45  1  0  0  0
 26 46  1  0  0  0
M  END
>  <Name>
tox-527

>  <substance>
Permethrin

>  <CASRN>
52645-53-1

>  <from_NCI>
1

>  <RBA>
0.000000

>  <method>
hERa-FP

>  <chemical_class>
Pyrethrin; Pyrethroid

>  <set>
0

$$$$
tox-528
  Cerius2 12190218273D 1   1.00000                          
 Structure written by MMmdl.
 24 26  0  0  0  0  0  0  0  0999 V2000
    0.7206    0.6670    0.0010 C   0  0  0  0  0  0
   -0.7206    0.6670   -0.0010 C   0  0  0  0  0  0
    1.4126   -0.5723    0.0019 C   0  0  0  0  0  0
    1.5182    1.8398    0.0021 C   0  0  0  0  0  0
   -1.4126   -0.5723   -0.0019 C   0  0  0  0  0  0
   -1.5182    1.8398   -0.0020 C   0  0  0  0  0  0
    0.6961   -1.7717    0.0009 C   0  0  0  0  0  0
    2.8175   -0.6074    0.0038 C   0  0  0  0  0  0
    2.9158    1.7914    0.0040 C   0  0  0  0  0  0
   -0.6961   -1.7717   -0.0009 C   0  0  0  0  0  0
   -2.8175   -0.6074   -0.0038 C   0  0  0  0  0  0
   -2.9158    1.7914   -0.0039 C   0  0  0  0  0  0
    3.5656    0.5668    0.0048 C   0  0  0  0  0  0
   -3.5656    0.5668   -0.0048 C   0  0  0  0  0  0
    1.0611    2.8274    0.0015 H   0  0  0  0  0  0
   -1.0611    2.8274   -0.0014 H   0  0  0  0  0  0
    1.2164   -2.7296    0.0016 H   0  0  0  0  0  0
    3.3462   -1.5608    0.0045 H   0  0  0  0  0  0
    3.4912    2.7156    0.0048 H   0  0  0  0  0  0
   -1.2164   -2.7296   -0.0017 H   0  0  0  0  0  0
   -3.3462   -1.5608   -0.0045 H   0  0  0  0  0  0
   -3.4912    2.7156   -0.0047 H   0  0  0  0  0  0
    4.6530    0.5224    0.0063 H   0  0  0  0  0  0
   -4.6530    0.5224   -0.0062 H   0  0  0  0  0  0
  1  2  2  0  0  0
  1  3  1  0  0  0
  1  4  1  0  0  0
  2  5  1  0  0  0
  2  6  1  0  0  0
  3  7  2  0  0  0
  3  8  1  0  0  0
  4  9  2  0  0  0
  4 15  1  0  0  0
  5 10  2  0  0  0
  5 11  1  0  0  0
  6 12  2  0  0  0
  6 16  1  0  0  0
  7 10  1  0  0  0
  7 17  1  0  0  0
  8 13  2  0  0  0
  8 18  1  0  0  0
  9 13  1  0  0  0
  9 19  1  0  0  0
 10 20  1  0  0  0
 11 14  2  0  0  0
 11 21  1  0  0  0
 12 14  1  0  0  0
 12 22  1  0  0  0
 13 23  1  0  0  0
 14 24  1  0  0  0
M  END
>  <Name>
tox-528

>  <substance>
Phenanthrene

>  <CASRN>
85-01-8

>  <from_NCI>
1

>  <RBA>
0.000000

>  <method>
MCF-7 cells

>  <chemical_class>
Polycyclic aromatic hydrocarbon

>  <set>
0

$$$$
tox-529
  Cerius2 12190218273D 1   1.00000                          
 Structure written by MMmdl.
 32 33  0  0  0  0  0  0  0  0999 V2000
    1.8376   -0.5204   -2.4222 C   0  0  0  0  0  0
    2.3596   -1.3211   -1.3037 C   0  0  0  0  0  0
    2.9031   -2.5373   -1.4995 C   0  0  0  0  0  0
    2.5400   -0.3530   -3.5587 C   0  0  0  0  0  0
   -1.9513    1.4440   -2.1417 C   0  0  0  0  0  0
   -0.7896    2.2056   -2.2035 C   0  0  0  0  0  0
    0.4505    1.5692   -2.2990 C   0  0  0  0  0  0
    0.5285    0.1690   -2.3358 C   0  0  0  0  0  0
   -0.6542   -0.5821   -2.2670 C   0  0  0  0  0  0
   -1.8952    0.0545   -2.1719 C   0  0  0  0  0  0
   -3.1430    2.1007   -2.0496 O   0  0  0  0  0  0
    2.1207    0.1059    2.7211 C   0  0  0  0  0  0
    1.3705   -1.0023    2.3433 C   0  0  0  0  0  0
    1.4478   -1.4751    1.0309 C   0  0  0  0  0  0
    2.2790   -0.8404    0.0959 C   0  0  0  0  0  0
    3.0241    0.2791    0.4947 C   0  0  0  0  0  0
    2.9472    0.7522    1.8079 C   0  0  0  0  0  0
    2.0194    0.5379    4.0107 O   0  0  0  0  0  0
    3.2869   -3.1375   -0.6783 H   0  0  0  0  0  0
    2.9805   -2.9801   -2.4887 H   0  0  0  0  0  0
    2.1638    0.2407   -4.3879 H   0  0  0  0  0  0
    3.5200   -0.8003   -3.7001 H   0  0  0  0  0  0
   -0.8404    3.2916   -2.1758 H   0  0  0  0  0  0
    1.3559    2.1726   -2.3388 H   0  0  0  0  0  0
   -0.6163   -1.6703   -2.2889 H   0  0  0  0  0  0
   -2.7993   -0.5475   -2.1219 H   0  0  0  0  0  0
   -3.8618    1.4337   -2.0158 H   0  0  0  0  0  0
    0.7235   -1.5007    3.0614 H   0  0  0  0  0  0
    0.8509   -2.3383    0.7409 H   0  0  0  0  0  0
    3.6718    0.7899   -0.2163 H   0  0  0  0  0  0
    3.5350    1.6205    2.0957 H   0  0  0  0  0  0
    2.6023    1.3192    4.1217 H   0  0  0  0  0  0
  1  2  1  0  0  0
  1  4  2  0  0  0
  1  8  1  0  0  0
  2  3  2  0  0  0
  2 15  1  0  0  0
  3 19  1  0  0  0
  3 20  1  0  0  0
  4 21  1  0  0  0
  4 22  1  0  0  0
  5  6  2  0  0  0
  5 10  1  0  0  0
  5 11  1  0  0  0
  6  7  1  0  0  0
  6 23  1  0  0  0
  7  8  2  0  0  0
  7 24  1  0  0  0
  8  9  1  0  0  0
  9 10  2  0  0  0
  9 25  1  0  0  0
 10 26  1  0  0  0
 11 27  1  0  0  0
 12 13  2  0  0  0
 12 17  1  0  0  0
 12 18  1  0  0  0
 13 14  1  0  0  0
 13 28  1  0  0  0
 14 15  2  0  0  0
 14 29  1  0  0  0
 15 16  1  0  0  0
 16 17  2  0  0  0
 16 30  1  0  0  0
 17 31  1  0  0  0
 18 32  1  0  0  0
M  END
>  <Name>
tox-529

>  <substance>
Phenol, 4,4'-[1,2-bis(methylene)-1,2- ethanediyl]bis-

>  <CASRN>
107144-81-0

>  <from_NCI>
0

>  <RBA>
20.000000

>  <method>
MCF-7 cytosol

>  <chemical_class>
Bisphenol

>  <set>
1

$$$$
tox-530
  Cerius2 12190218273D 1   1.00000                          
 Structure written by MMmdl.
 60 63  0  0  0  0  0  0  0  0999 V2000
    0.8582    0.4045   -0.2716 C   0  0  0  0  0  0
    0.4816   -0.9344   -0.0429 C   0  0  0  0  0  0
    1.3712   -2.1345    0.9541 S   0  0  0  0  0  0
    3.0895   -2.0512    0.3416 C   0  0  0  0  0  0
    3.2696   -1.6035   -1.0895 C   0  0  0  0  0  0
    3.3931   -0.2340   -1.4175 C   0  0  0  0  0  0
    3.2959    0.8051   -0.3577 C   0  0  0  0  0  0
    2.1011    1.0524    0.2461 C   0  0  0  0  0  0
    4.6100    1.5146   -0.0611 C   0  0  0  0  0  0
    5.5618    0.6973    0.8024 C   0  0  0  0  0  0
    3.3157   -2.5593   -2.1177 C   0  0  0  0  0  0
    3.4936   -2.1674   -3.4453 C   0  0  0  0  0  0
    3.6233   -0.8171   -3.7628 C   0  0  0  0  0  0
    3.5708    0.1467   -2.7552 C   0  0  0  0  0  0
    0.0273    1.2105   -1.0721 C   0  0  0  0  0  0
   -1.1502    0.7073   -1.6263 C   0  0  0  0  0  0
   -1.5299   -0.6121   -1.4016 C   0  0  0  0  0  0
   -0.7232   -1.4194   -0.6009 C   0  0  0  0  0  0
    2.0379    2.0133    1.3749 C   0  0  0  0  0  0
    1.8814    3.3893    1.1576 C   0  0  0  0  0  0
    1.8412    4.2728    2.2397 C   0  0  0  0  0  0
    1.9526    3.7805    3.5359 C   0  0  0  0  0  0
    2.1017    2.4180    3.7706 C   0  0  0  0  0  0
    2.1427    1.5350    2.6888 C   0  0  0  0  0  0
    1.9120    4.6729    4.5664 O   0  0  0  0  0  0
   -2.7001   -0.9742   -2.0044 O   0  0  0  0  0  0
   -3.0719   -2.3591   -2.0200 C   0  0  0  0  0  0
   -3.9854   -2.6862   -0.8257 C   0  0  0  0  0  0
   -4.6221   -4.0210   -0.9040 N   0  0  0  0  0  0
   -5.6674   -4.1314    0.1241 C   0  0  0  0  0  0
   -3.6367   -5.0947   -0.7192 C   0  0  0  0  0  0
    3.5200   -3.0529    0.4608 H   0  0  0  0  0  0
    3.6661   -1.4232    1.0268 H   0  0  0  0  0  0
    4.4436    2.4779    0.4303 H   0  0  0  0  0  0
    5.1143    1.7692   -1.0012 H   0  0  0  0  0  0
    6.4831    1.2619    0.9807 H   0  0  0  0  0  0
    5.8371   -0.2439    0.3158 H   0  0  0  0  0  0
    5.1169    0.4680    1.7759 H   0  0  0  0  0  0
    3.2186   -3.6195   -1.8867 H   0  0  0  0  0  0
    3.5326   -2.9176   -4.2337 H   0  0  0  0  0  0
    3.7608   -0.5131   -4.7987 H   0  0  0  0  0  0
    3.6609    1.1981   -3.0224 H   0  0  0  0  0  0
    0.2993    2.2438   -1.2849 H   0  0  0  0  0  0
   -1.7674    1.3554   -2.2457 H   0  0  0  0  0  0
   -1.0103   -2.4468   -0.3915 H   0  0  0  0  0  0
    1.8020    3.7839    0.1465 H   0  0  0  0  0  0
    1.7236    5.3402    2.0643 H   0  0  0  0  0  0
    2.1881    2.0251    4.7808 H   0  0  0  0  0  0
    2.2608    0.4702    2.8791 H   0  0  0  0  0  0
    1.9956    4.1753    5.4088 H   0  0  0  0  0  0
   -2.2016   -3.0186   -2.1014 H   0  0  0  0  0  0
   -3.6427   -2.5029   -2.9453 H   0  0  0  0  0  0
   -4.7704   -1.9174   -0.8078 H   0  0  0  0  0  0
   -3.4379   -2.5665    0.1181 H   0  0  0  0  0  0
   -6.1850   -5.0940    0.0438 H   0  0  0  0  0  0
   -6.4297   -3.3565   -0.0203 H   0  0  0  0  0  0
   -5.2642   -4.0359    1.1391 H   0  0  0  0  0  0
   -4.1263   -6.0753   -0.7571 H   0  0  0  0  0  0
   -3.1066   -5.0113    0.2372 H   0  0  0  0  0  0
   -2.8992   -5.0932   -1.5281 H   0  0  0  0  0  0
  1  2  2  0  0  0
  1  8  1  0  0  0
  1 15  1  0  0  0
  2  3  1  0  0  0
  2 18  1  0  0  0
  3  4  1  0  0  0
  4  5  1  0  0  0
  4 32  1  0  0  0
  4 33  1  0  0  0
  5  6  2  0  0  0
  5 11  1  0  0  0
  6  7  1  0  0  0
  6 14  1  0  0  0
  7  8  2  0  0  0
  7  9  1  0  0  0
  8 19  1  0  0  0
  9 10  1  0  0  0
  9 34  1  0  0  0
  9 35  1  0  0  0
 10 36  1  0  0  0
 10 37  1  0  0  0
 10 38  1  0  0  0
 11 12  2  0  0  0
 11 39  1  0  0  0
 12 13  1  0  0  0
 12 40  1  0  0  0
 13 14  2  0  0  0
 13 41  1  0  0  0
 14 42  1  0  0  0
 15 16  2  0  0  0
 15 43  1  0  0  0
 16 17  1  0  0  0
 16 44  1  0  0  0
 17 18  2  0  0  0
 17 26  1  0  0  0
 18 45  1  0  0  0
 19 20  2  0  0  0
 19 24  1  0  0  0
 20 21  1  0  0  0
 20 46  1  0  0  0
 21 22  2  0  0  0
 21 47  1  0  0  0
 22 23  1  0  0  0
 22 25  1  0  0  0
 23 24  2  0  0  0
 23 48  1  0  0  0
 24 49  1  0  0  0
 25 50  1  0  0  0
 26 27  1  0  0  0
 27 28  1  0  0  0
 27 51  1  0  0  0
 27 52  1  0  0  0
 28 29  1  0  0  0
 28 53  1  0  0  0
 28 54  1  0  0  0
 29 30  1  0  0  0
 29 31  1  0  0  0
 30 55  1  0  0  0
 30 56  1  0  0  0
 30 57  1  0  0  0
 31 58  1  0  0  0
 31 59  1  0  0  0
 31 60  1  0  0  0
M  END
>  <Name>
tox-530

>  <substance>
Phenol, 4-[3-(2dimethylamino)ethoxy]-11- ethyldibenzo[b,f ]thioctin-12-yl)

>  <CASRN>
85850-81-3

>  <from_NCI>
0

>  <RBA>
51.000000

>  <method>
MCF-7 cytosol,RUC

>  <chemical_class>
Triphenylethylene

>  <set>
1

$$$$
tox-531
  Cerius2 12190218273D 1   1.00000                          
 Structure written by MMmdl.
 57 60  0  0  0  0  0  0  0  0999 V2000
    1.5629    1.0819   -0.4723 C   0  0  0  0  0  0
    1.6356   -0.3239   -0.5525 C   0  0  0  0  0  0
    3.1924   -1.1997   -0.3478 S   0  0  0  0  0  0
    3.5127   -0.6209    1.3207 C   0  0  0  0  0  0
    3.6523    0.7527    1.6200 C   0  0  0  0  0  0
    3.7397    1.7994    0.5515 C   0  0  0  0  0  0
    2.7824    1.9520   -0.4098 C   0  0  0  0  0  0
    5.0703    2.5567    0.5634 C   0  0  0  0  0  0
    5.0549    3.9095    1.2670 C   0  0  0  0  0  0
    3.5350   -1.5781    2.3465 C   0  0  0  0  0  0
    3.6743   -1.1840    3.6753 C   0  0  0  0  0  0
    3.7800    0.1670    3.9871 C   0  0  0  0  0  0
    3.7684    1.1252    2.9693 C   0  0  0  0  0  0
    0.2996    1.6862   -0.5525 C   0  0  0  0  0  0
   -0.8549    0.9143   -0.7129 C   0  0  0  0  0  0
   -0.7747   -0.4742   -0.8138 C   0  0  0  0  0  0
    0.4717   -1.0923   -0.7272 C   0  0  0  0  0  0
    3.0018    2.9529   -1.4915 C   0  0  0  0  0  0
    3.5745    2.5457   -2.7053 C   0  0  0  0  0  0
    3.7794    3.4685   -3.7335 C   0  0  0  0  0  0
    3.4051    4.7949   -3.5518 C   0  0  0  0  0  0
    2.8241    5.2153   -2.3594 C   0  0  0  0  0  0
    2.6182    4.2916   -1.3308 C   0  0  0  0  0  0
    3.6236    5.6674   -4.5772 O   0  0  0  0  0  0
   -1.9753   -1.1083   -0.9808 O   0  0  0  0  0  0
   -1.9332   -2.5145   -1.2680 C   0  0  0  0  0  0
   -3.3709   -2.9900   -1.5423 C   0  0  0  0  0  0
   -3.4789   -4.3760   -2.0513 N   0  0  0  0  0  0
   -4.8764   -4.6589   -2.4128 C   0  0  0  0  0  0
   -3.0273   -5.3543   -1.0537 C   0  0  0  0  0  0
    5.4248    2.7048   -0.4636 H   0  0  0  0  0  0
    5.8496    1.9324    1.0219 H   0  0  0  0  0  0
    6.0235    4.4037    1.1352 H   0  0  0  0  0  0
    4.8871    3.8130    2.3421 H   0  0  0  0  0  0
    4.2877    4.5751    0.8667 H   0  0  0  0  0  0
    3.4245   -2.6369    2.1194 H   0  0  0  0  0  0
    3.6831   -1.9302    4.4679 H   0  0  0  0  0  0
    3.8724    0.4803    5.0256 H   0  0  0  0  0  0
    3.8423    2.1707    3.2548 H   0  0  0  0  0  0
    0.1960    2.7684   -0.4954 H   0  0  0  0  0  0
   -1.8224    1.4105   -0.7714 H   0  0  0  0  0  0
    0.5657   -2.1737   -0.7768 H   0  0  0  0  0  0
    3.8684    1.5078   -2.8542 H   0  0  0  0  0  0
    4.2297    3.1459   -4.6694 H   0  0  0  0  0  0
    2.5253    6.2501   -2.2121 H   0  0  0  0  0  0
    2.1573    4.6241   -0.4025 H   0  0  0  0  0  0
    3.3159    6.5562   -4.2983 H   0  0  0  0  0  0
   -1.5212   -3.0480   -0.4046 H   0  0  0  0  0  0
   -1.3160   -2.6947   -2.1564 H   0  0  0  0  0  0
   -3.7993   -2.3052   -2.2867 H   0  0  0  0  0  0
   -3.9745   -2.8538   -0.6345 H   0  0  0  0  0  0
   -4.9677   -5.6691   -2.8275 H   0  0  0  0  0  0
   -5.2191   -3.9693   -3.1918 H   0  0  0  0  0  0
   -5.5512   -4.5753   -1.5531 H   0  0  0  0  0  0
   -3.1604   -6.3748   -1.4306 H   0  0  0  0  0  0
   -3.5735   -5.2626   -0.1080 H   0  0  0  0  0  0
   -1.9569   -5.2436   -0.8531 H   0  0  0  0  0  0
  1  2  2  0  0  0
  1  7  1  0  0  0
  1 14  1  0  0  0
  2  3  1  0  0  0
  2 17  1  0  0  0
  3  4  1  0  0  0
  4  5  2  0  0  0
  4 10  1  0  0  0
  5  6  1  0  0  0
  5 13  1  0  0  0
  6  7  2  0  0  0
  6  8  1  0  0  0
  7 18  1  0  0  0
  8  9  1  0  0  0
  8 31  1  0  0  0
  8 32  1  0  0  0
  9 33  1  0  0  0
  9 34  1  0  0  0
  9 35  1  0  0  0
 10 11  2  0  0  0
 10 36  1  0  0  0
 11 12  1  0  0  0
 11 37  1  0  0  0
 12 13  2  0  0  0
 12 38  1  0  0  0
 13 39  1  0  0  0
 14 15  2  0  0  0
 14 40  1  0  0  0
 15 16  1  0  0  0
 15 41  1  0  0  0
 16 17  2  0  0  0
 16 25  1  0  0  0
 17 42  1  0  0  0
 18 19  2  0  0  0
 18 23  1  0  0  0
 19 20  1  0  0  0
 19 43  1  0  0  0
 20 21  2  0  0  0
 20 44  1  0  0  0
 21 22  1  0  0  0
 21 24  1  0  0  0
 22 23  2  0  0  0
 22 45  1  0  0  0
 23 46  1  0  0  0
 24 47  1  0  0  0
 25 26  1  0  0  0
 26 27  1  0  0  0
 26 48  1  0  0  0
 26 49  1  0  0  0
 27 28  1  0  0  0
 27 50  1  0  0  0
 27 51  1  0  0  0
 28 29  1  0  0  0
 28 30  1  0  0  0
 29 52  1  0  0  0
 29 53  1  0  0  0
 29 54  1  0  0  0
 30 55  1  0  0  0
 30 56  1  0  0  0
 30 57  1  0  0  0
M  END
>  <Name>
tox-531

>  <substance>
Phenol, 4-[7-(2-dimethylamino)ethoxy]-11- ethyldibenzo[b,f ]thiepin-10-yl]-

>  <CASRN>
85850-74-4

>  <from_NCI>
0

>  <RBA>
63.000000

>  <method>
MCF-7 cytosol,RUC

>  <chemical_class>
Triphenylethylene

>  <set>
2

$$$$
tox-532
  Cerius2 12190218273D 1   1.00000                          
 Structure written by MMmdl.
 62 65  0  0  0  0  0  0  0  0999 V2000
    0.9682    0.4978    0.0495 C   0  0  0  0  0  0
    0.8091   -0.8668    0.3774 C   0  0  0  0  0  0
    1.9621   -1.6614    0.9503 C   0  0  0  0  0  0
    2.8700   -2.2852   -0.1172 C   0  0  0  0  0  0
    3.0917   -1.5296   -1.4158 C   0  0  0  0  0  0
    3.3239   -0.1410   -1.5143 C   0  0  0  0  0  0
    3.3857    0.7990   -0.3581 C   0  0  0  0  0  0
    2.2630    1.1922    0.3069 C   0  0  0  0  0  0
    4.7894    1.3263   -0.0852 C   0  0  0  0  0  0
    5.5747    0.3788    0.8140 C   0  0  0  0  0  0
    3.0782   -2.2953   -2.6029 C   0  0  0  0  0  0
    3.2558   -1.7076   -3.8555 C   0  0  0  0  0  0
    3.4541   -0.3382   -3.9506 C   0  0  0  0  0  0
    3.4863    0.4364   -2.7917 C   0  0  0  0  0  0
   -0.1048    1.1936   -0.5176 C   0  0  0  0  0  0
   -1.3109    0.5360   -0.7814 C   0  0  0  0  0  0
   -1.4650   -0.8208   -0.4845 C   0  0  0  0  0  0
   -0.4061   -1.5161    0.1000 C   0  0  0  0  0  0
    2.3568    2.2537    1.3423 C   0  0  0  0  0  0
    2.3358    3.6054    0.9681 C   0  0  0  0  0  0
    2.4344    4.6079    1.9365 C   0  0  0  0  0  0
    2.5510    4.2606    3.2778 C   0  0  0  0  0  0
    2.5679    2.9256    3.6690 C   0  0  0  0  0  0
    2.4681    1.9225    2.7000 C   0  0  0  0  0  0
    2.6474    5.2654    4.1938 O   0  0  0  0  0  0
   -2.6843   -1.3524   -0.8117 O   0  0  0  0  0  0
   -2.8168   -2.7767   -0.6840 C   0  0  0  0  0  0
   -4.2157   -3.1900   -1.1763 C   0  0  0  0  0  0
   -4.4269   -4.6539   -1.2627 N   0  0  0  0  0  0
   -5.7288   -4.9285   -1.8906 C   0  0  0  0  0  0
   -4.3871   -5.2836    0.0643 C   0  0  0  0  0  0
    1.5698   -2.4575    1.5976 H   0  0  0  0  0  0
    2.5561   -1.0441    1.6321 H   0  0  0  0  0  0
    2.4283   -3.2615   -0.3631 H   0  0  0  0  0  0
    3.8482   -2.5083    0.3274 H   0  0  0  0  0  0
    4.7707    2.3161    0.3819 H   0  0  0  0  0  0
    5.3407    1.4694   -1.0220 H   0  0  0  0  0  0
    6.5679    0.7901    1.0201 H   0  0  0  0  0  0
    5.7108   -0.6003    0.3420 H   0  0  0  0  0  0
    5.0677    0.2270    1.7729 H   0  0  0  0  0  0
    2.9143   -3.3731   -2.5571 H   0  0  0  0  0  0
    3.2325   -2.3215   -4.7544 H   0  0  0  0  0  0
    3.5829    0.1304   -4.9240 H   0  0  0  0  0  0
    3.6381    1.5116   -2.8914 H   0  0  0  0  0  0
   -0.0059    2.2456   -0.7777 H   0  0  0  0  0  0
   -2.1307    1.0898   -1.2363 H   0  0  0  0  0  0
   -0.4872   -2.5726    0.3424 H   0  0  0  0  0  0
    2.2511    3.8855   -0.0806 H   0  0  0  0  0  0
    2.4235    5.6536    1.6381 H   0  0  0  0  0  0
    2.6601    2.6461    4.7163 H   0  0  0  0  0  0
    2.4856    0.8809    3.0154 H   0  0  0  0  0  0
    2.7096    4.8640    5.0873 H   0  0  0  0  0  0
   -2.6975   -3.0563    0.3680 H   0  0  0  0  0  0
   -2.0566   -3.2754   -1.2985 H   0  0  0  0  0  0
   -4.3501   -2.7511   -2.1737 H   0  0  0  0  0  0
   -4.9769   -2.7182   -0.5404 H   0  0  0  0  0  0
   -5.8827   -6.0086   -1.9935 H   0  0  0  0  0  0
   -5.7632   -4.5097   -2.9028 H   0  0  0  0  0  0
   -6.5619   -4.5127   -1.3128 H   0  0  0  0  0  0
   -4.5837   -6.3587   -0.0167 H   0  0  0  0  0  0
   -5.1233   -4.8486    0.7494 H   0  0  0  0  0  0
   -3.3932   -5.1920    0.5129 H   0  0  0  0  0  0
  1  2  2  0  0  0
  1  8  1  0  0  0
  1 15  1  0  0  0
  2  3  1  0  0  0
  2 18  1  0  0  0
  3  4  1  0  0  0
  3 32  1  0  0  0
  3 33  1  0  0  0
  4  5  1  0  0  0
  4 34  1  0  0  0
  4 35  1  0  0  0
  5  6  2  0  0  0
  5 11  1  0  0  0
  6  7  1  0  0  0
  6 14  1  0  0  0
  7  8  2  0  0  0
  7  9  1  0  0  0
  8 19  1  0  0  0
  9 10  1  0  0  0
  9 36  1  0  0  0
  9 37  1  0  0  0
 10 38  1  0  0  0
 10 39  1  0  0  0
 10 40  1  0  0  0
 11 12  2  0  0  0
 11 41  1  0  0  0
 12 13  1  0  0  0
 12 42  1  0  0  0
 13 14  2  0  0  0
 13 43  1  0  0  0
 14 44  1  0  0  0
 15 16  2  0  0  0
 15 45  1  0  0  0
 16 17  1  0  0  0
 16 46  1  0  0  0
 17 18  2  0  0  0
 17 26  1  0  0  0
 18 47  1  0  0  0
 19 20  2  0  0  0
 19 24  1  0  0  0
 20 21  1  0  0  0
 20 48  1  0  0  0
 21 22  2  0  0  0
 21 49  1  0  0  0
 22 23  1  0  0  0
 22 25  1  0  0  0
 23 24  2  0  0  0
 23 50  1  0  0  0
 24 51  1  0  0  0
 25 52  1  0  0  0
 26 27  1  0  0  0
 27 28  1  0  0  0
 27 53  1  0  0  0
 27 54  1  0  0  0
 28 29  1  0  0  0
 28 55  1  0  0  0
 28 56  1  0  0  0
 29 30  1  0  0  0
 29 31  1  0  0  0
 30 57  1  0  0  0
 30 58  1  0  0  0
 30 59  1  0  0  0
 31 60  1  0  0  0
 31 61  1  0  0  0
 31 62  1  0  0  0
M  END
>  <Name>
tox-532

>  <substance>
Phenol, 4-[2-(2 dimethylamino)-ethoxy]-6-ethyl-11,12-dihydro-dibenzo[a,e ]cycloocten-5-yl]-

>  <CASRN>
85850-75-5

>  <from_NCI>
0

>  <RBA>
50.000000

>  <method>
MCF-7 cytosol,RUC

>  <chemical_class>
Triphenylethylene

>  <set>
0

$$$$
tox-533
  Cerius2 12190218273D 1   1.00000                          
 Structure written by MMmdl.
 57 60  0  0  0  0  0  0  0  0999 V2000
   -1.5924    1.0147   -0.2779 C   0  0  0  0  0  0
   -2.9436    0.8385   -0.3548 C   0  0  0  0  0  0
   -3.5754   -0.5143   -0.2494 C   0  0  0  0  0  0
   -3.0673   -1.6180   -0.9542 C   0  0  0  0  0  0
   -1.9023   -1.5316   -1.6842 O   0  0  0  0  0  0
   -0.8039   -1.3214   -0.8799 C   0  0  0  0  0  0
   -0.6456   -0.1376   -0.1470 C   0  0  0  0  0  0
   -3.9409    1.9797   -0.5761 C   0  0  0  0  0  0
   -4.5820    1.9226   -1.9597 C   0  0  0  0  0  0
   -1.0510    2.3983   -0.3832 C   0  0  0  0  0  0
    0.1527   -2.3419   -0.8381 C   0  0  0  0  0  0
    1.2822   -2.2159   -0.0304 C   0  0  0  0  0  0
    1.4495   -1.0558    0.7228 C   0  0  0  0  0  0
    0.4987   -0.0261    0.6584 C   0  0  0  0  0  0
   -4.7362   -0.7188    0.5154 C   0  0  0  0  0  0
   -5.3785   -1.9626    0.5415 C   0  0  0  0  0  0
   -4.8755   -3.0281   -0.1996 C   0  0  0  0  0  0
   -3.7170   -2.8571   -0.9508 C   0  0  0  0  0  0
    2.1353   -3.2835   -0.0652 O   0  0  0  0  0  0
    3.3014   -3.2142    0.7687 C   0  0  0  0  0  0
    4.0934   -4.5220    0.5907 C   0  0  0  0  0  0
    5.2486   -4.6718    1.5043 N   0  0  0  0  0  0
    6.2994   -3.6890    1.2068 C   0  0  0  0  0  0
    5.8028   -6.0280    1.3745 C   0  0  0  0  0  0
   -1.0109    3.2409    0.7380 C   0  0  0  0  0  0
   -0.4925    4.5330    0.6280 C   0  0  0  0  0  0
   -0.0133    4.9800   -0.5989 C   0  0  0  0  0  0
   -0.0414    4.1564   -1.7202 C   0  0  0  0  0  0
   -0.5591    2.8631   -1.6113 C   0  0  0  0  0  0
    0.4847    6.2480   -0.6671 O   0  0  0  0  0  0
   -3.4756    2.9643   -0.4771 H   0  0  0  0  0  0
   -4.7206    1.9762    0.1926 H   0  0  0  0  0  0
   -5.2467    2.7813   -2.0999 H   0  0  0  0  0  0
   -5.1798    1.0156   -2.0939 H   0  0  0  0  0  0
   -3.8221    1.9527   -2.7478 H   0  0  0  0  0  0
    0.0042   -3.2429   -1.4295 H   0  0  0  0  0  0
    2.3119   -0.9058    1.3671 H   0  0  0  0  0  0
    0.6751    0.8702    1.2512 H   0  0  0  0  0  0
   -5.1627    0.0837    1.1137 H   0  0  0  0  0  0
   -6.2782   -2.0943    1.1408 H   0  0  0  0  0  0
   -5.3799   -3.9923   -0.1834 H   0  0  0  0  0  0
   -3.3100   -3.6908   -1.5187 H   0  0  0  0  0  0
    3.0012   -3.1128    1.8187 H   0  0  0  0  0  0
    3.9150   -2.3592    0.4643 H   0  0  0  0  0  0
    4.4038   -4.6184   -0.4588 H   0  0  0  0  0  0
    3.3905   -5.3480    0.7667 H   0  0  0  0  0  0
    7.1627   -3.8414    1.8647 H   0  0  0  0  0  0
    5.9495   -2.6698    1.3982 H   0  0  0  0  0  0
    6.6432   -3.7526    0.1682 H   0  0  0  0  0  0
    6.6375   -6.1692    2.0702 H   0  0  0  0  0  0
    6.1590   -6.2336    0.3585 H   0  0  0  0  0  0
    5.0480   -6.7777    1.6363 H   0  0  0  0  0  0
   -1.3839    2.8950    1.7005 H   0  0  0  0  0  0
   -0.4656    5.1823    1.4999 H   0  0  0  0  0  0
    0.3333    4.5002   -2.6814 H   0  0  0  0  0  0
   -0.5787    2.2211   -2.4905 H   0  0  0  0  0  0
    0.7809    6.4147   -1.5875 H   0  0  0  0  0  0
  1  2  2  0  0  0
  1  7  1  0  0  0
  1 10  1  0  0  0
  2  3  1  0  0  0
  2  8  1  0  0  0
  3  4  2  0  0  0
  3 15  1  0  0  0
  4  5  1  0  0  0
  4 18  1  0  0  0
  5  6  1  0  0  0
  6  7  2  0  0  0
  6 11  1  0  0  0
  7 14  1  0  0  0
  8  9  1  0  0  0
  8 31  1  0  0  0
  8 32  1  0  0  0
  9 33  1  0  0  0
  9 34  1  0  0  0
  9 35  1  0  0  0
 10 25  2  0  0  0
 10 29  1  0  0  0
 11 12  2  0  0  0
 11 36  1  0  0  0
 12 13  1  0  0  0
 12 19  1  0  0  0
 13 14  2  0  0  0
 13 37  1  0  0  0
 14 38  1  0  0  0
 15 16  2  0  0  0
 15 39  1  0  0  0
 16 17  1  0  0  0
 16 40  1  0  0  0
 17 18  2  0  0  0
 17 41  1  0  0  0
 18 42  1  0  0  0
 19 20  1  0  0  0
 20 21  1  0  0  0
 20 43  1  0  0  0
 20 44  1  0  0  0
 21 22  1  0  0  0
 21 45  1  0  0  0
 21 46  1  0  0  0
 22 23  1  0  0  0
 22 24  1  0  0  0
 23 47  1  0  0  0
 23 48  1  0  0  0
 23 49  1  0  0  0
 24 50  1  0  0  0
 24 51  1  0  0  0
 24 52  1  0  0  0
 25 26  1  0  0  0
 25 53  1  0  0  0
 26 27  2  0  0  0
 26 54  1  0  0  0
 27 28  1  0  0  0
 27 30  1  0  0  0
 28 29  2  0  0  0
 28 55  1  0  0  0
 29 56  1  0  0  0
 30 57  1  0  0  0
M  END
>  <Name>
tox-533

>  <substance>
Phenol, 3-[2-dimethylaminoethoxy]-10-ethyl- 4-hydroxyphenyl dibenzo-[b,f ]oxepin

>  <CASRN>
85850-80-2

>  <from_NCI>
0

>  <RBA>
6.100000

>  <method>
MCF-7 cytosol,RUC

>  <chemical_class>
Triphenylethylene

>  <set>
0

$$$$
tox-534
  Cerius2 12190218273D 1   1.00000                          
 Structure written by MMmdl.
 61 63  0  0  0  0  0  0  0  0999 V2000
   -3.1977   -3.4970    2.8763 C   0  0  0  0  0  0
   -4.0511   -4.1279    1.9553 C   0  0  0  0  0  0
   -3.6481   -4.0074    0.6096 C   0  0  0  0  0  0
   -2.4841   -3.3192    0.1876 C   0  0  0  0  0  0
   -1.6741   -2.6948    1.1486 C   0  0  0  0  0  0
   -2.0403   -2.7966    2.4944 C   0  0  0  0  0  0
   -5.1011   -4.7544    2.3061 O   0  0  0  0  0  0
   -0.4453   -1.9278    0.7959 C   0  0  0  0  0  0
    0.7654   -2.5547    0.7992 C   0  0  0  0  0  0
    2.0218   -1.8334    0.4678 C   0  0  0  0  0  0
    0.9862   -4.0349    1.0807 C   0  0  0  0  0  0
   -2.1837   -3.2450   -1.2861 C   0  0  0  0  0  0
    1.5459   -4.2918    2.4750 C   0  0  0  0  0  0
   -0.5340   -0.4753    0.4796 C   0  0  0  0  0  0
   -0.6731    0.4615    1.5136 C   0  0  0  0  0  0
   -0.6874    1.8299    1.2318 C   0  0  0  0  0  0
   -0.5524    2.2661   -0.0846 C   0  0  0  0  0  0
   -0.4733    1.3452   -1.1267 C   0  0  0  0  0  0
   -0.4552   -0.0226   -0.8451 C   0  0  0  0  0  0
   -0.5443    3.5944   -0.4135 O   0  0  0  0  0  0
    0.5782    4.3009    0.1534 C   0  0  0  0  0  0
    1.8487    4.0874   -0.6937 C   0  0  0  0  0  0
    2.9918    4.9418   -0.2970 N   0  0  0  0  0  0
    4.0525    4.8435   -1.3115 C   0  0  0  0  0  0
    3.5335    4.5312    1.0067 C   0  0  0  0  0  0
    2.6353   -0.9957    1.4096 C   0  0  0  0  0  0
    3.8071   -0.3072    1.0870 C   0  0  0  0  0  0
    4.3763   -0.4532   -0.1771 C   0  0  0  0  0  0
    3.7763   -1.2869   -1.1197 C   0  0  0  0  0  0
    2.6037   -1.9757   -0.7996 C   0  0  0  0  0  0
   -3.4291   -3.5377    3.9446 H   0  0  0  0  0  0
   -4.2686   -4.4747   -0.1618 H   0  0  0  0  0  0
   -1.4313   -2.3311    3.2682 H   0  0  0  0  0  0
    1.6682   -4.4626    0.3352 H   0  0  0  0  0  0
    0.0598   -4.6075    0.9695 H   0  0  0  0  0  0
   -1.1189   -3.4012   -1.4833 H   0  0  0  0  0  0
   -2.4914   -2.2726   -1.6817 H   0  0  0  0  0  0
   -2.7221   -4.0225   -1.8391 H   0  0  0  0  0  0
    1.6241   -5.3692    2.6540 H   0  0  0  0  0  0
    0.8994   -3.8668    3.2491 H   0  0  0  0  0  0
    2.5466   -3.8636    2.5910 H   0  0  0  0  0  0
   -0.7496    0.1331    2.5483 H   0  0  0  0  0  0
   -0.8000    2.5394    2.0479 H   0  0  0  0  0  0
   -0.3963    1.6850   -2.1571 H   0  0  0  0  0  0
   -0.3564   -0.7308   -1.6650 H   0  0  0  0  0  0
    0.7352    4.0363    1.2043 H   0  0  0  0  0  0
    0.3079    5.3632    0.1359 H   0  0  0  0  0  0
    1.5766    4.3093   -1.7352 H   0  0  0  0  0  0
    2.1347    3.0273   -0.6825 H   0  0  0  0  0  0
    4.8924    5.4975   -1.0512 H   0  0  0  0  0  0
    3.6840    5.1830   -2.2858 H   0  0  0  0  0  0
    4.4292    3.8200   -1.4200 H   0  0  0  0  0  0
    4.3957    5.1530    1.2738 H   0  0  0  0  0  0
    3.8520    3.4825    1.0121 H   0  0  0  0  0  0
    2.7975    4.6755    1.8037 H   0  0  0  0  0  0
    2.2012   -0.8715    2.4003 H   0  0  0  0  0  0
    4.2749    0.3439    1.8234 H   0  0  0  0  0  0
    5.2898    0.0835   -0.4274 H   0  0  0  0  0  0
    4.2197   -1.3997   -2.1075 H   0  0  0  0  0  0
    2.1410   -2.6150   -1.5497 H   0  0  0  0  0  0
   -5.4877   -5.0676    1.6169 H   0  0  0  0  0  0
  1  2  2  0  0  0
  1  6  1  0  0  0
  1 31  1  0  0  0
  2  3  1  0  0  0
  2  7  1  0  0  0
  3  4  2  0  0  0
  3 32  1  0  0  0
  4  5  1  0  0  0
  4 12  1  0  0  0
  5  6  2  0  0  0
  5  8  1  0  0  0
  6 33  1  0  0  0
  7 61  1  0  0  0
  8  9  2  0  0  0
  8 14  1  0  0  0
  9 10  1  0  0  0
  9 11  1  0  0  0
 10 26  2  0  0  0
 10 30  1  0  0  0
 11 13  1  0  0  0
 11 34  1  0  0  0
 11 35  1  0  0  0
 12 36  1  0  0  0
 12 37  1  0  0  0
 12 38  1  0  0  0
 13 39  1  0  0  0
 13 40  1  0  0  0
 13 41  1  0  0  0
 14 15  2  0  0  0
 14 19  1  0  0  0
 15 16  1  0  0  0
 15 42  1  0  0  0
 16 17  2  0  0  0
 16 43  1  0  0  0
 17 18  1  0  0  0
 17 20  1  0  0  0
 18 19  2  0  0  0
 18 44  1  0  0  0
 19 45  1  0  0  0
 20 21  1  0  0  0
 21 22  1  0  0  0
 21 46  1  0  0  0
 21 47  1  0  0  0
 22 23  1  0  0  0
 22 48  1  0  0  0
 22 49  1  0  0  0
 23 24  1  0  0  0
 23 25  1  0  0  0
 24 50  1  0  0  0
 24 51  1  0  0  0
 24 52  1  0  0  0
 25 53  1  0  0  0
 25 54  1  0  0  0
 25 55  1  0  0  0
 26 27  1  0  0  0
 26 56  1  0  0  0
 27 28  2  0  0  0
 27 57  1  0  0  0
 28 29  1  0  0  0
 28 58  1  0  0  0
 29 30  2  0  0  0
 29 59  1  0  0  0
 30 60  1  0  0  0
M  END
>  <Name>
tox-534

>  <substance>
Phenol, 4-[1-[4-[2- (dimethylamino)ethoxy]phenyl]-2- phenyl-1-butenyl]-3-methyl-, (E )-

>  <CASRN>
96474-35-0

>  <from_NCI>
1

>  <RBA>
100.000000

>  <method>
MCF-7 cytosol

>  <chemical_class>
Triphenylethylene

>  <set>
2

$$$$
tox-535
  Cerius2 12190218273D 1   1.00000                          
 Structure written by MMmdl.
 43 45  0  0  0  0  0  0  0  0999 V2000
   -2.9190   -3.3256   -0.5267 C   0  0  0  0  0  0
   -2.8239   -2.5440    0.6196 C   0  0  0  0  0  0
   -2.0849   -1.3588    0.5892 C   0  0  0  0  0  0
   -1.4361   -0.9591   -0.5876 C   0  0  0  0  0  0
   -1.5500   -1.7560   -1.7365 C   0  0  0  0  0  0
   -2.2891   -2.9419   -1.7061 C   0  0  0  0  0  0
   -3.6500   -4.4752   -0.4585 O   0  0  0  0  0  0
   -0.6621    0.3116   -0.6191 C   0  0  0  0  0  0
    0.6998    0.3058   -0.5873 C   0  0  0  0  0  0
    1.5827    1.5439   -0.6864 C   0  0  0  0  0  0
    2.1789    1.9505    0.6561 C   0  0  0  0  0  0
    1.4768   -0.9566   -0.5004 C   0  0  0  0  0  0
    2.1289   -1.4656   -1.6317 C   0  0  0  0  0  0
    2.8631   -2.6509   -1.5506 C   0  0  0  0  0  0
    2.9527   -3.3353   -0.3394 C   0  0  0  0  0  0
    2.3092   -2.8361    0.7921 C   0  0  0  0  0  0
    1.5746   -1.6510    0.7132 C   0  0  0  0  0  0
   -1.3863    1.6062   -0.6930 C   0  0  0  0  0  0
   -1.8752    2.0684   -1.9222 C   0  0  0  0  0  0
   -2.5594    3.2836   -1.9961 C   0  0  0  0  0  0
   -2.7627    4.0418   -0.8436 C   0  0  0  0  0  0
   -2.2850    3.5862    0.3846 C   0  0  0  0  0  0
   -1.6008    2.3713    0.4614 C   0  0  0  0  0  0
   -3.3206   -2.8493    1.5375 H   0  0  0  0  0  0
   -2.0147   -0.7528    1.4906 H   0  0  0  0  0  0
   -1.0614   -1.4575   -2.6625 H   0  0  0  0  0  0
   -2.3612   -3.5467   -2.6067 H   0  0  0  0  0  0
   -3.6227   -4.9111   -1.3370 H   0  0  0  0  0  0
    1.0331    2.3982   -1.0955 H   0  0  0  0  0  0
    2.3966    1.3697   -1.4016 H   0  0  0  0  0  0
    2.7601    2.8716    0.5441 H   0  0  0  0  0  0
    2.8513    1.1800    1.0467 H   0  0  0  0  0  0
    1.3986    2.1329    1.4017 H   0  0  0  0  0  0
    2.0639   -0.9454   -2.5860 H   0  0  0  0  0  0
    3.3644   -3.0408   -2.4347 H   0  0  0  0  0  0
    3.5248   -4.2594   -0.2771 H   0  0  0  0  0  0
    2.3789   -3.3697    1.7382 H   0  0  0  0  0  0
    1.0798   -1.2715    1.6056 H   0  0  0  0  0  0
   -1.7225    1.4867   -2.8298 H   0  0  0  0  0  0
   -2.9341    3.6386   -2.9544 H   0  0  0  0  0  0
   -3.2963    4.9890   -0.9025 H   0  0  0  0  0  0
   -2.4460    4.1770    1.2845 H   0  0  0  0  0  0
   -1.2359    2.0255    1.4270 H   0  0  0  0  0  0
  1  2  2  0  0  0
  1  6  1  0  0  0
  1  7  1  0  0  0
  2  3  1  0  0  0
  2 24  1  0  0  0
  3  4  2  0  0  0
  3 25  1  0  0  0
  4  5  1  0  0  0
  4  8  1  0  0  0
  5  6  2  0  0  0
  5 26  1  0  0  0
  6 27  1  0  0  0
  7 28  1  0  0  0
  8  9  2  0  0  0
  8 18  1  0  0  0
  9 10  1  0  0  0
  9 12  1  0  0  0
 10 11  1  0  0  0
 10 29  1  0  0  0
 10 30  1  0  0  0
 11 31  1  0  0  0
 11 32  1  0  0  0
 11 33  1  0  0  0
 12 13  2  0  0  0
 12 17  1  0  0  0
 13 14  1  0  0  0
 13 34  1  0  0  0
 14 15  2  0  0  0
 14 35  1  0  0  0
 15 16  1  0  0  0
 15 36  1  0  0  0
 16 17  2  0  0  0
 16 37  1  0  0  0
 17 38  1  0  0  0
 18 19  2  0  0  0
 18 23  1  0  0  0
 19 20  1  0  0  0
 19 39  1  0  0  0
 20 21  2  0  0  0
 20 40  1  0  0  0
 21 22  1  0  0  0
 21 41  1  0  0  0
 22 23  2  0  0  0
 22 42  1  0  0  0
 23 43  1  0  0  0
M  END
>  <Name>
tox-535

>  <substance>
Phenol, 4-(1, 2-diphenyl-1-butenyl)-

>  <CASRN>
69967-79-9

>  <from_NCI>
0

>  <RBA>
15.000000

>  <method>
MCF-7 cytosol

>  <chemical_class>
Triphenylethylene

>  <set>
0

$$$$
tox-536
  Cerius2 12190218273D 1   1.00000                          
 Structure written by MMmdl.
 43 45  0  0  0  0  0  0  0  0999 V2000
   -2.9190   -3.3256   -0.5267 C   0  0  0  0  0  0
   -2.8239   -2.5440    0.6196 C   0  0  0  0  0  0
   -2.0849   -1.3588    0.5892 C   0  0  0  0  0  0
   -1.4361   -0.9591   -0.5876 C   0  0  0  0  0  0
   -1.5500   -1.7560   -1.7365 C   0  0  0  0  0  0
   -2.2891   -2.9419   -1.7061 C   0  0  0  0  0  0
   -3.6500   -4.4752   -0.4585 O   0  0  0  0  0  0
   -0.6621    0.3116   -0.6191 C   0  0  0  0  0  0
    0.6998    0.3058   -0.5873 C   0  0  0  0  0  0
    1.5827    1.5439   -0.6864 C   0  0  0  0  0  0
    2.1789    1.9505    0.6561 C   0  0  0  0  0  0
    1.4768   -0.9566   -0.5004 C   0  0  0  0  0  0
    2.1289   -1.4656   -1.6317 C   0  0  0  0  0  0
    2.8631   -2.6509   -1.5506 C   0  0  0  0  0  0
    2.9527   -3.3353   -0.3394 C   0  0  0  0  0  0
    2.3092   -2.8361    0.7921 C   0  0  0  0  0  0
    1.5746   -1.6510    0.7132 C   0  0  0  0  0  0
   -1.3863    1.6062   -0.6930 C   0  0  0  0  0  0
   -1.8752    2.0684   -1.9222 C   0  0  0  0  0  0
   -2.5594    3.2836   -1.9961 C   0  0  0  0  0  0
   -2.7627    4.0418   -0.8436 C   0  0  0  0  0  0
   -2.2850    3.5862    0.3846 C   0  0  0  0  0  0
   -1.6008    2.3713    0.4614 C   0  0  0  0  0  0
   -3.3206   -2.8493    1.5375 H   0  0  0  0  0  0
   -2.0147   -0.7528    1.4906 H   0  0  0  0  0  0
   -1.0614   -1.4575   -2.6625 H   0  0  0  0  0  0
   -2.3612   -3.5467   -2.6067 H   0  0  0  0  0  0
   -3.6227   -4.9111   -1.3370 H   0  0  0  0  0  0
    1.0331    2.3982   -1.0955 H   0  0  0  0  0  0
    2.3966    1.3697   -1.4016 H   0  0  0  0  0  0
    2.7601    2.8716    0.5441 H   0  0  0  0  0  0
    2.8513    1.1800    1.0467 H   0  0  0  0  0  0
    1.3986    2.1329    1.4017 H   0  0  0  0  0  0
    2.0639   -0.9454   -2.5860 H   0  0  0  0  0  0
    3.3644   -3.0408   -2.4347 H   0  0  0  0  0  0
    3.5248   -4.2594   -0.2771 H   0  0  0  0  0  0
    2.3789   -3.3697    1.7382 H   0  0  0  0  0  0
    1.0798   -1.2715    1.6056 H   0  0  0  0  0  0
   -1.7225    1.4867   -2.8298 H   0  0  0  0  0  0
   -2.9341    3.6386   -2.9544 H   0  0  0  0  0  0
   -3.2963    4.9890   -0.9025 H   0  0  0  0  0  0
   -2.4460    4.1770    1.2845 H   0  0  0  0  0  0
   -1.2359    2.0255    1.4270 H   0  0  0  0  0  0
  1  2  2  0  0  0
  1  6  1  0  0  0
  1  7  1  0  0  0
  2  3  1  0  0  0
  2 24  1  0  0  0
  3  4  2  0  0  0
  3 25  1  0  0  0
  4  5  1  0  0  0
  4  8  1  0  0  0
  5  6  2  0  0  0
  5 26  1  0  0  0
  6 27  1  0  0  0
  7 28  1  0  0  0
  8  9  2  0  0  0
  8 18  1  0  0  0
  9 10  1  0  0  0
  9 12  1  0  0  0
 10 11  1  0  0  0
 10 29  1  0  0  0
 10 30  1  0  0  0
 11 31  1  0  0  0
 11 32  1  0  0  0
 11 33  1  0  0  0
 12 13  2  0  0  0
 12 17  1  0  0  0
 13 14  1  0  0  0
 13 34  1  0  0  0
 14 15  2  0  0  0
 14 35  1  0  0  0
 15 16  1  0  0  0
 15 36  1  0  0  0
 16 17  2  0  0  0
 16 37  1  0  0  0
 17 38  1  0  0  0
 18 19  2  0  0  0
 18 23  1  0  0  0
 19 20  1  0  0  0
 19 39  1  0  0  0
 20 21  2  0  0  0
 20 40  1  0  0  0
 21 22  1  0  0  0
 21 41  1  0  0  0
 22 23  2  0  0  0
 22 42  1  0  0  0
 23 43  1  0  0  0
M  END
>  <Name>
tox-536

>  <substance>
Phenol, 4-(1Z )-1,2-diphenyl-1-butenyl)-

>  <CASRN>
69967-80-2

>  <from_NCI>
0

>  <RBA>
1.000000

>  <method>
MCF-7 cytosol

>  <chemical_class>
Triphenylethylene

>  <set>
0

$$$$
tox-537
  Cerius2 12190218273D 1   1.00000                          
 Structure written by MMmdl.
 59 62  0  0  0  0  0  0  0  0999 V2000
    6.0863   -2.2537   -3.4118 C   0  0  0  0  0  0
    5.6628   -2.1982   -2.0879 C   0  0  0  0  0  0
    4.4952   -1.5041   -1.7632 C   0  0  0  0  0  0
    3.7536   -0.8631   -2.7655 C   0  0  0  0  0  0
    4.1900   -0.9349   -4.0965 C   0  0  0  0  0  0
    5.3583   -1.6294   -4.4196 C   0  0  0  0  0  0
    7.2318   -2.9399   -3.6896 O   0  0  0  0  0  0
    2.5138   -0.1201   -2.4196 C   0  0  0  0  0  0
    2.6105    1.2105   -2.1603 C   0  0  0  0  0  0
    1.2174   -0.8438   -2.3546 C   0  0  0  0  0  0
    0.7315   -1.3144   -1.1289 C   0  0  0  0  0  0
   -0.5022   -1.9716   -1.0577 C   0  0  0  0  0  0
   -1.2611   -2.1688   -2.2123 C   0  0  0  0  0  0
   -0.7608   -1.7296   -3.4407 C   0  0  0  0  0  0
    0.4682   -1.0668   -3.5146 C   0  0  0  0  0  0
   -2.4843   -2.7798   -2.2663 O   0  0  0  0  0  0
   -3.1770   -2.9193   -1.0166 C   0  0  0  0  0  0
   -4.6139   -3.3878   -1.3012 C   0  0  0  0  0  0
   -5.4657   -3.4105   -0.1020 N   0  0  0  0  0  0
   -6.8581   -3.7403   -0.4307 C   0  0  0  0  0  0
   -7.4571   -4.0511    0.9311 C   0  0  0  0  0  0
   -6.2902   -4.5605    1.7690 C   0  0  0  0  0  0
   -5.0676   -4.4362    0.8701 C   0  0  0  0  0  0
    3.8470    2.0139   -2.1716 C   0  0  0  0  0  0
    4.2563    2.6736   -3.3393 C   0  0  0  0  0  0
    5.4269    3.4350   -3.3448 C   0  0  0  0  0  0
    6.1963    3.5413   -2.1873 C   0  0  0  0  0  0
    5.8001    2.8855   -1.0228 C   0  0  0  0  0  0
    4.6297    2.1245   -1.0133 C   0  0  0  0  0  0
    1.3740    1.9088   -1.8344 N   0  0  0  0  0  0
    0.6932    2.3485   -2.7772 O   0  0  0  0  0  0
    1.0969    2.0562   -0.6311 O   0  0  0  0  0  0
    6.2352   -2.6916   -1.3064 H   0  0  0  0  0  0
    4.1736   -1.4645   -0.7237 H   0  0  0  0  0  0
    3.6259   -0.4487   -4.8909 H   0  0  0  0  0  0
    5.6828   -1.6707   -5.4567 H   0  0  0  0  0  0
    7.3967   -2.8864   -4.6551 H   0  0  0  0  0  0
    1.3048   -1.1689   -0.2143 H   0  0  0  0  0  0
   -0.8367   -2.3172   -0.0835 H   0  0  0  0  0  0
   -1.3361   -1.8884   -4.3515 H   0  0  0  0  0  0
    0.8270   -0.7210   -4.4829 H   0  0  0  0  0  0
   -3.2116   -1.9527   -0.4984 H   0  0  0  0  0  0
   -2.6613   -3.6604   -0.3959 H   0  0  0  0  0  0
   -4.5860   -4.3691   -1.7952 H   0  0  0  0  0  0
   -5.0505   -2.6969   -2.0355 H   0  0  0  0  0  0
   -6.9240   -4.6230   -1.0795 H   0  0  0  0  0  0
   -7.3764   -2.9081   -0.9171 H   0  0  0  0  0  0
   -8.2630   -4.7879    0.8612 H   0  0  0  0  0  0
   -7.8704   -3.1438    1.3877 H   0  0  0  0  0  0
   -6.4442   -5.5960    2.0888 H   0  0  0  0  0  0
   -6.1796   -3.9439    2.6687 H   0  0  0  0  0  0
   -4.1824   -4.1440    1.4431 H   0  0  0  0  0  0
   -4.8686   -5.3991    0.3830 H   0  0  0  0  0  0
    3.6688    2.5999   -4.2538 H   0  0  0  0  0  0
    5.7391    3.9459   -4.2541 H   0  0  0  0  0  0
    7.1078    4.1364   -2.1926 H   0  0  0  0  0  0
    6.4031    2.9668   -0.1201 H   0  0  0  0  0  0
    4.3344    1.6192   -0.0941 H   0  0  0  0  0  0
    0.3598    2.4734   -0.5591 H   0  0  0  0  0  0
  1  2  2  0  0  0
  1  6  1  0  0  0
  1  7  1  0  0  0
  2  3  1  0  0  0
  2 33  1  0  0  0
  3  4  2  0  0  0
  3 34  1  0  0  0
  4  5  1  0  0  0
  4  8  1  0  0  0
  5  6  2  0  0  0
  5 35  1  0  0  0
  6 36  1  0  0  0
  7 37  1  0  0  0
  8  9  2  0  0  0
  8 10  1  0  0  0
  9 24  1  0  0  0
  9 30  1  0  0  0
 10 11  2  0  0  0
 10 15  1  0  0  0
 11 12  1  0  0  0
 11 38  1  0  0  0
 12 13  2  0  0  0
 12 39  1  0  0  0
 13 14  1  0  0  0
 13 16  1  0  0  0
 14 15  2  0  0  0
 14 40  1  0  0  0
 15 41  1  0  0  0
 16 17  1  0  0  0
 17 18  1  0  0  0
 17 42  1  0  0  0
 17 43  1  0  0  0
 18 19  1  0  0  0
 18 44  1  0  0  0
 18 45  1  0  0  0
 19 20  1  0  0  0
 19 23  1  0  0  0
 20 21  1  0  0  0
 20 46  1  0  0  0
 20 47  1  0  0  0
 21 22  1  0  0  0
 21 48  1  0  0  0
 21 49  1  0  0  0
 22 23  1  0  0  0
 22 50  1  0  0  0
 22 51  1  0  0  0
 23 52  1  0  0  0
 23 53  1  0  0  0
 24 25  2  0  0  0
 24 29  1  0  0  0
 25 26  1  0  0  0
 25 54  1  0  0  0
 26 27  2  0  0  0
 26 55  1  0  0  0
 27 28  1  0  0  0
 27 56  1  0  0  0
 28 29  2  0  0  0
 28 57  1  0  0  0
 29 58  1  0  0  0
 30 31  2  0  0  0
 30 32  1  0  0  0
 32 59  1  0  0  0
M  END
>  <Name>
tox-537

>  <substance>
Phenol, 4-[2-Nitro-2-phenyl-1-[4-[2-(1pyrrolidinyl)ethoxy]phenyl]ethenyl]phenyl, (E )-

>  <CASRN>
107144-84-3

>  <from_NCI>
0

>  <RBA>
100.000000

>  <method>
MCF-7 cytosol

>  <chemical_class>
Triphenylethylene

>  <set>
0

$$$$
tox-538
  Cerius2 12190218273D 1   1.00000                          
 Structure written by MMmdl.
 44 46  0  0  0  0  0  0  0  0999 V2000
   -2.6065    3.9818    0.9670 C   0  0  0  0  0  0
   -2.5104    2.5960    1.1131 C   0  0  0  0  0  0
   -1.8134    1.8294    0.1690 C   0  0  0  0  0  0
   -1.2169    2.4726   -0.9242 C   0  0  0  0  0  0
   -1.3145    3.8585   -1.0688 C   0  0  0  0  0  0
   -2.0091    4.6120   -0.1236 C   0  0  0  0  0  0
   -1.7292    0.3537    0.3156 C   0  0  0  0  0  0
   -3.0436   -0.3484   -0.0075 C   0  0  0  0  0  0
   -0.5931   -0.2690    0.7392 C   0  0  0  0  0  0
   -0.5730   -1.7511    0.8521 C   0  0  0  0  0  0
    0.6251    0.5083    1.0990 C   0  0  0  0  0  0
    1.7263    0.5389    0.2442 C   0  0  0  0  0  0
    2.8879    1.2475    0.6021 C   0  0  0  0  0  0
    3.0206    1.9508    1.8157 C   0  0  0  0  0  0
    1.8873    1.8915    2.6507 C   0  0  0  0  0  0
    0.7160    1.1891    2.3127 C   0  0  0  0  0  0
   -0.7533   -2.3705    2.0881 C   0  0  0  0  0  0
   -0.7304   -3.7730    2.1912 C   0  0  0  0  0  0
   -0.5258   -4.6251    1.0878 C   0  0  0  0  0  0
   -0.3423   -3.9578   -0.1396 C   0  0  0  0  0  0
   -0.3614   -2.5571   -0.2656 C   0  0  0  0  0  0
   -3.3012   -0.4563   -1.5062 C   0  0  0  0  0  0
    4.0768    2.5850    2.1320 O   0  0  0  0  0  0
   -0.5069   -5.8925    1.1916 O   0  0  0  0  0  0
   -3.1480    4.5696    1.7061 H   0  0  0  0  0  0
   -2.9801    2.1188    1.9717 H   0  0  0  0  0  0
   -0.6752    1.8965   -1.6725 H   0  0  0  0  0  0
   -0.8478    4.3495   -1.9207 H   0  0  0  0  0  0
   -2.0844    5.6920   -0.2369 H   0  0  0  0  0  0
   -3.8805    0.1840    0.4620 H   0  0  0  0  0  0
   -3.0795   -1.3542    0.4239 H   0  0  0  0  0  0
    1.6999    0.0156   -0.7099 H   0  0  0  0  0  0
    3.7187    1.2375   -0.1092 H   0  0  0  0  0  0
    1.8998    2.4078    3.6148 H   0  0  0  0  0  0
   -0.1174    1.1821    3.0129 H   0  0  0  0  0  0
   -0.9172   -1.7761    2.9854 H   0  0  0  0  0  0
   -0.8804   -4.2040    3.1853 H   0  0  0  0  0  0
   -0.1744   -4.5398   -1.0503 H   0  0  0  0  0  0
   -0.2090   -2.1116   -1.2471 H   0  0  0  0  0  0
   -4.2260   -1.0136   -1.6878 H   0  0  0  0  0  0
   -2.4862   -0.9806   -2.0150 H   0  0  0  0  0  0
   -3.4133    0.5304   -1.9668 H   0  0  0  0  0  0
    3.9734    2.9448    2.8951 H   0  0  0  0  0  0
   -0.3720   -6.2375    0.4265 H   0  0  0  0  0  0
  1  2  2  0  0  0
  1  6  1  0  0  0
  1 25  1  0  0  0
  2  3  1  0  0  0
  2 26  1  0  0  0
  3  4  2  0  0  0
  3  7  1  0  0  0
  4  5  1  0  0  0
  4 27  1  0  0  0
  5  6  2  0  0  0
  5 28  1  0  0  0
  6 29  1  0  0  0
  7  8  1  0  0  0
  7  9  2  0  0  0
  8 22  1  0  0  0
  8 30  1  0  0  0
  8 31  1  0  0  0
  9 10  1  0  0  0
  9 11  1  0  0  0
 10 17  2  0  0  0
 10 21  1  0  0  0
 11 12  2  0  0  0
 11 16  1  0  0  0
 12 13  1  0  0  0
 12 32  1  0  0  0
 13 14  2  0  0  0
 13 33  1  0  0  0
 14 15  1  0  0  0
 14 23  1  0  0  0
 15 16  2  0  0  0
 15 34  1  0  0  0
 16 35  1  0  0  0
 17 18  1  0  0  0
 17 36  1  0  0  0
 18 19  2  0  0  0
 18 37  1  0  0  0
 19 20  1  0  0  0
 19 24  1  0  0  0
 20 21  2  0  0  0
 20 38  1  0  0  0
 21 39  1  0  0  0
 22 40  1  0  0  0
 22 41  1  0  0  0
 22 42  1  0  0  0
 23 43  1  0  0  0
 24 44  1  0  0  0
M  END
>  <Name>
tox-538

>  <substance>
Phenol, 4,4'-(2-phenyl-1-butenylidene)bis-

>  <CASRN>
91221-46-4

>  <from_NCI>
1

>  <RBA>
100.000000

>  <method>
MCF-7 cytosol

>  <chemical_class>
Triphenylethylene

>  <set>
2

$$$$
tox-539
  Cerius2 12190218273D 1   1.00000                          
 Structure written by MMmdl.
 38 41  0  0  0  0  0  0  0  0999 V2000
    0.9212   -0.2826    0.0482 C   0  0  0  0  0  0
   -0.4117    0.3974   -0.0955 C   0  0  0  0  0  0
    1.3218   -1.0178   -1.2426 C   0  0  0  0  0  0
    1.1367   -1.1175    1.3227 C   0  0  0  0  0  0
    1.8095    0.8729    0.2405 O   0  0  0  0  0  0
   -0.2647    1.7578    0.0922 C   0  0  0  0  0  0
   -1.6691   -0.1213   -0.3876 C   0  0  0  0  0  0
    2.0924   -0.4080   -2.2403 C   0  0  0  0  0  0
    0.8886   -2.3268   -1.4928 C   0  0  0  0  0  0
    0.1176   -1.4395    2.2250 C   0  0  0  0  0  0
    2.4223   -1.5859    1.6387 C   0  0  0  0  0  0
    1.1379    2.0530    0.3284 C   0  0  0  0  0  0
   -1.3246    2.6483    0.0231 C   0  0  0  0  0  0
   -2.7593    0.7527   -0.4623 C   0  0  0  0  0  0
    2.4240   -1.0931   -3.4247 C   0  0  0  0  0  0
    1.2313   -2.9934   -2.6841 C   0  0  0  0  0  0
    0.3815   -2.1986    3.3827 C   0  0  0  0  0  0
    2.6647   -2.3425    2.8000 C   0  0  0  0  0  0
    1.6390    3.1425    0.5399 O   0  0  0  0  0  0
   -2.5890    2.1301   -0.2553 C   0  0  0  0  0  0
    2.0120   -2.4098   -3.6978 C   0  0  0  0  0  0
    1.6586   -2.6812    3.7205 C   0  0  0  0  0  0
    2.3176   -3.0197   -4.7711 O   0  0  0  0  0  0
    1.8834   -3.3643    4.7692 O   0  0  0  0  0  0
   -1.8156   -1.1864   -0.5503 H   0  0  0  0  0  0
    2.4540    0.6129   -2.1248 H   0  0  0  0  0  0
    0.2745   -2.8561   -0.7643 H   0  0  0  0  0  0
   -0.9082   -1.1134    2.0670 H   0  0  0  0  0  0
    3.2632   -1.3655    0.9799 H   0  0  0  0  0  0
   -1.1769    3.7135    0.1731 H   0  0  0  0  0  0
   -3.7513    0.3606   -0.6845 H   0  0  0  0  0  0
    3.0323   -0.5560   -4.1588 H   0  0  0  0  0  0
    0.8609   -4.0152   -2.8094 H   0  0  0  0  0  0
   -0.4654   -2.4117    4.0422 H   0  0  0  0  0  0
    3.6926   -2.6723    2.9771 H   0  0  0  0  0  0
   -3.4479    2.7964   -0.3190 H   0  0  0  0  0  0
    1.9819   -3.8005   -4.7587 H   0  0  0  0  0  0
    2.7084   -3.5656    4.8048 H   0  0  0  0  0  0
  1  2  1  0  0  0
  1  3  1  0  0  0
  1  4  1  0  0  0
  1  5  1  0  0  0
  2  6  2  0  0  0
  2  7  1  0  0  0
  3  8  2  0  0  0
  3  9  1  0  0  0
  4 10  2  0  0  0
  4 11  1  0  0  0
  5 12  1  0  0  0
  6 12  1  0  0  0
  6 13  1  0  0  0
  7 14  2  0  0  0
  7 25  1  0  0  0
  8 15  1  0  0  0
  8 26  1  0  0  0
  9 16  2  0  0  0
  9 27  1  0  0  0
 10 17  1  0  0  0
 10 28  1  0  0  0
 11 18  2  0  0  0
 11 29  1  0  0  0
 12 19  2  0  0  0
 13 20  2  0  0  0
 13 30  1  0  0  0
 14 20  1  0  0  0
 14 31  1  0  0  0
 15 21  2  0  0  0
 15 32  1  0  0  0
 16 21  1  0  0  0
 16 33  1  0  0  0
 17 22  2  0  0  0
 17 34  1  0  0  0
 18 22  1  0  0  0
 18 35  1  0  0  0
 20 36  1  0  0  0
 21 23  1  0  0  0
 22 24  1  0  0  0
 23 37  1  0  0  0
 24 38  1  0  0  0
M  END
>  <Name>
tox-539

>  <substance>
Phenolphthalein

>  <CASRN>
77-09-8

>  <from_NCI>
1

>  <RBA>
0.010000

>  <method>
RUC

>  <chemical_class>
Triphenylmethane

>  <set>
1

$$$$
tox-540
  Cerius2 12190218273D 1   1.00000                          
 Structure written by MMmdl.
 40 42  0  0  0  0  0  0  0  0999 V2000
    2.6409   -0.7211    0.6206 O   0  0  0  0  0  0
    1.5213   -0.5395    0.0443 C   0  0  0  0  0  0
    1.4094   -0.0817   -1.1350 O   0  0  0  0  0  0
    0.2854   -1.0222    0.7450 C   0  0  0  0  0  0
   -0.7567   -0.1798    1.2064 C   0  0  0  0  0  0
   -1.8864   -0.7918    1.8054 C   0  0  0  0  0  0
   -1.9800   -2.1741    1.9690 C   0  0  0  0  0  0
   -0.9476   -2.9907    1.5348 C   0  0  0  0  0  0
    0.1697   -2.4216    0.9294 C   0  0  0  0  0  0
   -0.7870    1.3604    1.1124 C   0  0  0  0  0  0
   -1.5879    1.9244   -0.0716 C   0  0  0  0  0  0
   -2.2711    3.1401    0.0713 C   0  0  0  0  0  0
   -3.0217    3.6842   -0.9870 C   0  0  0  0  0  0
   -3.1406    3.0653   -2.2440 C   0  0  0  0  0  0
   -3.8224    3.5614   -3.1963 O   0  0  0  0  0  0
   -2.4393    1.8507   -2.3583 C   0  0  0  0  0  0
   -1.6821    1.2896   -1.3110 C   0  0  0  0  0  0
    0.5192    2.0873    1.4501 C   0  0  0  0  0  0
    1.2491    2.8289    0.5185 C   0  0  0  0  0  0
    2.4174    3.5191    0.8967 C   0  0  0  0  0  0
    2.9304    3.5151    2.2075 C   0  0  0  0  0  0
    3.9837    4.1466    2.5389 O   0  0  0  0  0  0
    2.1793    2.7514    3.1192 C   0  0  0  0  0  0
    1.0100    2.0549    2.7620 C   0  0  0  0  0  0
   -2.7174   -0.1781    2.1573 H   0  0  0  0  0  0
   -2.8613   -2.6085    2.4374 H   0  0  0  0  0  0
   -1.0119   -4.0698    1.6604 H   0  0  0  0  0  0
    0.9706   -3.0772    0.5834 H   0  0  0  0  0  0
   -1.4194    1.6469    1.9716 H   0  0  0  0  0  0
   -2.2293    3.6860    1.0141 H   0  0  0  0  0  0
   -3.5298    4.6353   -0.8030 H   0  0  0  0  0  0
   -2.4704    1.2978   -3.3019 H   0  0  0  0  0  0
   -1.1719    0.3462   -1.4957 H   0  0  0  0  0  0
    0.9288    2.8865   -0.5210 H   0  0  0  0  0  0
    2.9382    4.0821    0.1165 H   0  0  0  0  0  0
    2.5018    2.6858    4.1624 H   0  0  0  0  0  0
    0.4825    1.4923    3.5325 H   0  0  0  0  0  0
    2.1738    0.1570   -1.4200 H   0  0  0  0  0  0
   -3.7772    3.0498   -3.8736 H   0  0  0  0  0  0
    4.1370    4.0273    3.3664 H   0  0  0  0  0  0
  1  2  2  0  0  0
  2  3  1  0  0  0
  2  4  1  0  0  0
  3 38  1  0  0  0
  4  5  2  0  0  0
  4  9  1  0  0  0
  5  6  1  0  0  0
  5 10  1  0  0  0
  6  7  2  0  0  0
  6 25  1  0  0  0
  7  8  1  0  0  0
  7 26  1  0  0  0
  8  9  2  0  0  0
  8 27  1  0  0  0
  9 28  1  0  0  0
 10 11  1  0  0  0
 10 18  1  0  0  0
 10 29  1  0  0  0
 11 12  2  0  0  0
 11 17  1  0  0  0
 12 13  1  0  0  0
 12 30  1  0  0  0
 13 14  2  0  0  0
 13 31  1  0  0  0
 14 15  1  0  0  0
 14 16  1  0  0  0
 15 39  1  0  0  0
 16 17  2  0  0  0
 16 32  1  0  0  0
 17 33  1  0  0  0
 18 19  2  0  0  0
 18 24  1  0  0  0
 19 20  1  0  0  0
 19 34  1  0  0  0
 20 21  2  0  0  0
 20 35  1  0  0  0
 21 22  1  0  0  0
 21 23  1  0  0  0
 22 40  1  0  0  0
 23 24  2  0  0  0
 23 36  1  0  0  0
 24 37  1  0  0  0
M  END
>  <Name>
tox-540

>  <substance>
Phenolphthalin

>  <CASRN>
81-90-3

>  <from_NCI>
1

>  <RBA>
0.000200

>  <method>
RUC

>  <chemical_class>
Triphenylmethane

>  <set>
2

$$$$
tox-541
  Cerius2 12190218273D 1   1.00000                          
 Structure written by MMmdl.
 39 42  0  0  0  0  0  0  0  0999 V2000
    0.5870    0.6818    1.1588 C   0  0  0  0  0  0
   -0.7660    1.3885    0.9948 C   0  0  0  0  0  0
    1.2632    0.4963   -0.2165 C   0  0  0  0  0  0
    0.5629   -0.6066    2.0085 C   0  0  0  0  0  0
    1.4236    1.5779    1.9478 O   0  0  0  0  0  0
   -0.8868    2.5524    1.7495 C   0  0  0  0  0  0
   -1.8451    1.0084    0.1979 C   0  0  0  0  0  0
    2.0877    1.4838   -0.7718 C   0  0  0  0  0  0
    1.0371   -0.6451   -0.9975 C   0  0  0  0  0  0
   -0.6046   -1.1771    2.5268 C   0  0  0  0  0  0
    1.7681   -1.2549    2.3261 C   0  0  0  0  0  0
    0.5999    2.8283    2.5905 S   0  0  0  0  0  0
   -2.0106    3.3594    1.7610 C   0  0  0  0  0  0
   -3.0031    1.7979    0.1905 C   0  0  0  0  0  0
    2.6749    1.3152   -2.0404 C   0  0  0  0  0  0
    1.6339   -0.7934   -2.2640 C   0  0  0  0  0  0
   -0.5588   -2.3462    3.3131 C   0  0  0  0  0  0
    1.7919   -2.4213    3.1131 C   0  0  0  0  0  0
    1.1975    4.0636    2.1098 O   0  0  0  0  0  0
    0.4022    2.5767    4.0083 O   0  0  0  0  0  0
   -3.0856    2.9647    0.9674 C   0  0  0  0  0  0
    2.4778    0.1740   -2.8381 C   0  0  0  0  0  0
    0.6333   -3.0172    3.6391 C   0  0  0  0  0  0
    3.0137    0.0309   -3.9825 O   0  0  0  0  0  0
    0.6605   -4.0710    4.3505 O   0  0  0  0  0  0
   -1.8057    0.1083   -0.4116 H   0  0  0  0  0  0
    2.2937    2.4093   -0.2355 H   0  0  0  0  0  0
    0.3896   -1.4450   -0.6385 H   0  0  0  0  0  0
   -1.5840   -0.7388    2.3463 H   0  0  0  0  0  0
    2.7169   -0.8581    1.9627 H   0  0  0  0  0  0
   -2.0543    4.2650    2.3581 H   0  0  0  0  0  0
   -3.8508    1.5037   -0.4277 H   0  0  0  0  0  0
    3.3114    2.1258   -2.4079 H   0  0  0  0  0  0
    1.4159   -1.7136   -2.8142 H   0  0  0  0  0  0
   -1.5127   -2.7354    3.6823 H   0  0  0  0  0  0
    2.7693   -2.8694    3.3146 H   0  0  0  0  0  0
   -3.9938    3.5654    0.9434 H   0  0  0  0  0  0
    2.7812   -0.7170   -4.3127 H   0  0  0  0  0  0
    1.4646   -4.3316    4.4402 H   0  0  0  0  0  0
  1  2  1  0  0  0
  1  3  1  0  0  0
  1  4  1  0  0  0
  1  5  1  0  0  0
  2  6  2  0  0  0
  2  7  1  0  0  0
  3  8  2  0  0  0
  3  9  1  0  0  0
  4 10  2  0  0  0
  4 11  1  0  0  0
  5 12  1  0  0  0
  6 12  1  0  0  0
  6 13  1  0  0  0
  7 14  2  0  0  0
  7 26  1  0  0  0
  8 15  1  0  0  0
  8 27  1  0  0  0
  9 16  2  0  0  0
  9 28  1  0  0  0
 10 17  1  0  0  0
 10 29  1  0  0  0
 11 18  2  0  0  0
 11 30  1  0  0  0
 12 19  2  0  0  0
 12 20  2  0  0  0
 13 21  2  0  0  0
 13 31  1  0  0  0
 14 21  1  0  0  0
 14 32  1  0  0  0
 15 22  2  0  0  0
 15 33  1  0  0  0
 16 22  1  0  0  0
 16 34  1  0  0  0
 17 23  2  0  0  0
 17 35  1  0  0  0
 18 23  1  0  0  0
 18 36  1  0  0  0
 21 37  1  0  0  0
 22 24  1  0  0  0
 23 25  1  0  0  0
 24 38  1  0  0  0
 25 39  1  0  0  0
M  END
>  <Name>
tox-541

>  <substance>
Phenol Red

>  <CASRN>
143-74-8

>  <from_NCI>
1

>  <RBA>
0.001000

>  <method>
RUC

>  <chemical_class>
Diphenolalkane; Bisphenol

>  <set>
1

$$$$
tox-542
  Cerius2 12190218273D 1   1.00000                          
 Structure written by MMmdl.
 52 54  0  0  0  0  0  0  0  0999 V2000
   -2.7907   -3.1856   -2.2495 C   0  0  0  0  0  0
   -1.4085   -2.9094   -1.6978 C   0  0  0  0  0  0
   -2.0531   -1.9235   -2.6676 C   0  0  0  0  0  0
   -3.9910   -3.1273   -1.4044 C   0  0  0  0  0  0
   -1.1230   -2.5484   -0.2890 C   0  0  0  0  0  0
   -2.5080   -0.5676   -2.1749 C   0  0  0  0  0  0
   -1.4992   -1.8789   -4.0719 C   0  0  0  0  0  0
   -4.4711   -4.0987   -0.6032 C   0  0  0  0  0  0
   -0.3447   -1.4384   -0.2197 O   0  0  0  0  0  0
   -1.4765   -3.2351    0.6602 O   0  0  0  0  0  0
   -5.7337   -3.8996    0.1918 C   0  0  0  0  0  0
   -3.8188   -5.4421   -0.4217 C   0  0  0  0  0  0
    0.0431   -1.0578    1.1040 C   0  0  0  0  0  0
    1.2023   -0.1032    0.9726 C   0  0  0  0  0  0
    0.9918    1.2828    0.9472 C   0  0  0  0  0  0
    2.5084   -0.5959    0.8260 C   0  0  0  0  0  0
    2.0741    2.1555    0.8121 C   0  0  0  0  0  0
    3.5848    0.2788    0.6676 C   0  0  0  0  0  0
    1.7944    3.5033    0.7677 O   0  0  0  0  0  0
    3.3688    1.6559    0.6544 C   0  0  0  0  0  0
    2.5595    4.3225    1.5671 C   0  0  0  0  0  0
    2.7357    4.0816    2.9319 C   0  0  0  0  0  0
    3.1052    5.4637    0.9783 C   0  0  0  0  0  0
    3.4922    4.9691    3.6993 C   0  0  0  0  0  0
    3.8615    6.3491    1.7482 C   0  0  0  0  0  0
    4.0568    6.1002    3.1071 C   0  0  0  0  0  0
   -2.8565   -3.9723   -2.9990 H   0  0  0  0  0  0
   -0.6295   -3.5556   -2.0945 H   0  0  0  0  0  0
   -4.5720   -2.2071   -1.4748 H   0  0  0  0  0  0
   -1.6813    0.1492   -2.2267 H   0  0  0  0  0  0
   -2.8650   -0.5820   -1.1404 H   0  0  0  0  0  0
   -3.3219   -0.1912   -2.8041 H   0  0  0  0  0  0
   -0.6371   -1.2051   -4.1181 H   0  0  0  0  0  0
   -2.2606   -1.5144   -4.7694 H   0  0  0  0  0  0
   -1.1721   -2.8657   -4.4169 H   0  0  0  0  0  0
   -5.5274   -4.0004    1.2625 H   0  0  0  0  0  0
   -6.4825   -4.6465   -0.0914 H   0  0  0  0  0  0
   -6.1730   -2.9097    0.0297 H   0  0  0  0  0  0
   -3.5627   -5.5979    0.6315 H   0  0  0  0  0  0
   -2.8988   -5.5517   -1.0034 H   0  0  0  0  0  0
   -4.5026   -6.2383   -0.7339 H   0  0  0  0  0  0
    0.3505   -1.9260    1.7002 H   0  0  0  0  0  0
   -0.8031   -0.5720    1.6035 H   0  0  0  0  0  0
   -0.0145    1.6876    1.0366 H   0  0  0  0  0  0
    2.6927   -1.6699    0.8254 H   0  0  0  0  0  0
    4.5921   -0.1151    0.5455 H   0  0  0  0  0  0
    4.2124    2.3272    0.5114 H   0  0  0  0  0  0
    2.2851    3.2131    3.4073 H   0  0  0  0  0  0
    2.9493    5.6629   -0.0796 H   0  0  0  0  0  0
    3.6365    4.7821    4.7620 H   0  0  0  0  0  0
    4.2953    7.2356    1.2888 H   0  0  0  0  0  0
    4.6435    6.7925    3.7080 H   0  0  0  0  0  0
  1  2  1  0  0  0
  1  3  1  0  0  0
  1  4  1  0  0  0
  1 27  1  0  0  0
  2  3  1  0  0  0
  2  5  1  0  0  0
  2 28  1  0  0  0
  3  6  1  0  0  0
  3  7  1  0  0  0
  4  8  2  0  0  0
  4 29  1  0  0  0
  5  9  1  0  0  0
  5 10  2  0  0  0
  6 30  1  0  0  0
  6 31  1  0  0  0
  6 32  1  0  0  0
  7 33  1  0  0  0
  7 34  1  0  0  0
  7 35  1  0  0  0
  8 11  1  0  0  0
  8 12  1  0  0  0
  9 13  1  0  0  0
 11 36  1  0  0  0
 11 37  1  0  0  0
 11 38  1  0  0  0
 12 39  1  0  0  0
 12 40  1  0  0  0
 12 41  1  0  0  0
 13 14  1  0  0  0
 13 42  1  0  0  0
 13 43  1  0  0  0
 14 15  2  0  0  0
 14 16  1  0  0  0
 15 17  1  0  0  0
 15 44  1  0  0  0
 16 18  2  0  0  0
 16 45  1  0  0  0
 17 19  1  0  0  0
 17 20  2  0  0  0
 18 20  1  0  0  0
 18 46  1  0  0  0
 19 21  1  0  0  0
 20 47  1  0  0  0
 21 22  2  0  0  0
 21 23  1  0  0  0
 22 24  1  0  0  0
 22 48  1  0  0  0
 23 25  2  0  0  0
 23 49  1  0  0  0
 24 26  2  0  0  0
 24 50  1  0  0  0
 25 26  1  0  0  0
 25 51  1  0  0  0
 26 52  1  0  0  0
M  END
>  <Name>
tox-542

>  <substance>
d -Phenothrin

>  <CASRN>
26002-80-2

>  <from_NCI>
1

>  <RBA>
0.000000

>  <method>
hERa-FP

>  <chemical_class>
Pyrethrin; Pyrethroid

>  <set>
2

$$$$
tox-543
  Cerius2 12190218273D 1   1.00000                          
 Structure written by MMmdl.
 39 42  0  0  0  0  0  0  0  0999 V2000
   -2.3452    0.3686    0.7500 C   0  0  0  0  0  0
   -1.0305    0.3830   -0.0112 C   0  0  0  0  0  0
   -0.6473   -0.8492   -0.4300 C   0  0  0  0  0  0
   -1.6707   -1.7913    0.0520 C   0  0  0  0  0  0
   -1.7572   -3.1673   -0.1020 C   0  0  0  0  0  0
   -2.8518   -3.8351    0.4575 C   0  0  0  0  0  0
   -3.8356   -3.1213    1.1525 C   0  0  0  0  0  0
   -3.7580   -1.7393    1.3056 C   0  0  0  0  0  0
   -2.6664   -1.0926    0.7457 C   0  0  0  0  0  0
   -4.8799   -3.8281    1.6754 O   0  0  0  0  0  0
    0.5546   -1.1533   -1.2175 C   0  0  0  0  0  0
    1.5799   -1.9468   -0.6884 C   0  0  0  0  0  0
    2.7198   -2.2460   -1.4298 C   0  0  0  0  0  0
    2.8383   -1.7477   -2.7210 C   0  0  0  0  0  0
    1.8350   -0.9584   -3.2759 C   0  0  0  0  0  0
    0.6930   -0.6629   -2.5241 C   0  0  0  0  0  0
    3.9647   -2.0558   -3.4258 O   0  0  0  0  0  0
    1.4854   -2.4293    0.5609 F   0  0  0  0  0  0
   -0.3390    1.6639   -0.2138 C   0  0  0  0  0  0
   -1.0161    2.7552   -0.7742 C   0  0  0  0  0  0
   -0.3659    3.9786   -0.9581 C   0  0  0  0  0  0
    0.9661    4.1261   -0.5777 C   0  0  0  0  0  0
    1.6481    3.0520   -0.0109 C   0  0  0  0  0  0
    0.9984    1.8287    0.1729 C   0  0  0  0  0  0
   -3.1256    0.9327    0.2304 H   0  0  0  0  0  0
   -2.2150    0.7362    1.7728 H   0  0  0  0  0  0
   -0.9986   -3.7256   -0.6431 H   0  0  0  0  0  0
   -2.9364   -4.9146    0.3490 H   0  0  0  0  0  0
   -4.5189   -1.1781    1.8393 H   0  0  0  0  0  0
   -5.4821   -3.2000    2.1288 H   0  0  0  0  0  0
    3.5010   -2.8609   -0.9945 H   0  0  0  0  0  0
    1.9215   -0.5658   -4.2866 H   0  0  0  0  0  0
   -0.0883   -0.0474   -2.9676 H   0  0  0  0  0  0
    3.9022   -1.6361   -4.3106 H   0  0  0  0  0  0
   -2.0544    2.6639   -1.0889 H   0  0  0  0  0  0
   -0.9014    4.8167   -1.4008 H   0  0  0  0  0  0
    1.4720    5.0792   -0.7209 H   0  0  0  0  0  0
    2.6872    3.1657    0.2928 H   0  0  0  0  0  0
    1.5479    1.0089    0.6327 H   0  0  0  0  0  0
  1  2  1  0  0  0
  1  9  1  0  0  0
  1 25  1  0  0  0
  1 26  1  0  0  0
  2  3  2  0  0  0
  2 19  1  0  0  0
  3  4  1  0  0  0
  3 11  1  0  0  0
  4  5  2  0  0  0
  4  9  1  0  0  0
  5  6  1  0  0  0
  5 27  1  0  0  0
  6  7  2  0  0  0
  6 28  1  0  0  0
  7  8  1  0  0  0
  7 10  1  0  0  0
  8  9  2  0  0  0
  8 29  1  0  0  0
 10 30  1  0  0  0
 11 12  2  0  0  0
 11 16  1  0  0  0
 12 13  1  0  0  0
 12 18  1  0  0  0
 13 14  2  0  0  0
 13 31  1  0  0  0
 14 15  1  0  0  0
 14 17  1  0  0  0
 15 16  2  0  0  0
 15 32  1  0  0  0
 16 33  1  0  0  0
 17 34  1  0  0  0
 19 20  2  0  0  0
 19 24  1  0  0  0
 20 21  1  0  0  0
 20 35  1  0  0  0
 21 22  2  0  0  0
 21 36  1  0  0  0
 22 23  1  0  0  0
 22 37  1  0  0  0
 23 24  2  0  0  0
 23 38  1  0  0  0
 24 39  1  0  0  0
M  END
>  <Name>
tox-543

>  <substance>
2-Phenyl-3-(2-fluoro-4- hydroxyphenyl)-6-hydroxyindene

>  <CASRN>


>  <from_NCI>
0

>  <RBA>
9.600000

>  <method>
RUC

>  <chemical_class>
Indene

>  <set>
2

$$$$
tox-544
  Cerius2 12190218273D 1   1.00000                          
 Structure written by MMmdl.
 38 41  0  0  0  0  0  0  0  0999 V2000
   -1.8499    0.3631    0.7914 C   0  0  0  0  0  0
   -0.5707    0.3777   -0.0284 C   0  0  0  0  0  0
   -0.2198   -0.8510   -0.4842 C   0  0  0  0  0  0
   -1.2303   -1.7911    0.0283 C   0  0  0  0  0  0
   -1.3381   -3.1634   -0.1442 C   0  0  0  0  0  0
   -2.4132   -3.8300    0.4535 C   0  0  0  0  0  0
   -3.3570   -3.1184    1.2040 C   0  0  0  0  0  0
   -3.2580   -1.7400    1.3761 C   0  0  0  0  0  0
   -2.1862   -1.0946    0.7778 C   0  0  0  0  0  0
   -4.3839   -3.8238    1.7622 O   0  0  0  0  0  0
    0.9419   -1.1546   -1.3303 C   0  0  0  0  0  0
    1.9802   -1.9676   -0.8619 C   0  0  0  0  0  0
    3.0816   -2.2658   -1.6613 C   0  0  0  0  0  0
    3.1570   -1.7502   -2.9539 C   0  0  0  0  0  0
    2.1304   -0.9403   -3.4396 C   0  0  0  0  0  0
    1.0271   -0.6443   -2.6333 C   0  0  0  0  0  0
    1.9384   -2.4709    0.3819 F   0  0  0  0  0  0
    0.1242    1.6555   -0.2402 C   0  0  0  0  0  0
   -0.5675    2.7648   -0.7446 C   0  0  0  0  0  0
    0.0860    3.9854   -0.9356 C   0  0  0  0  0  0
    1.4365    4.1120   -0.6183 C   0  0  0  0  0  0
    2.1338    3.0199   -0.1075 C   0  0  0  0  0  0
    1.4807    1.7994    0.0834 C   0  0  0  0  0  0
   -2.6471    0.9432    0.3171 H   0  0  0  0  0  0
   -1.6699    0.7122    1.8131 H   0  0  0  0  0  0
   -0.6106   -3.7198   -0.7282 H   0  0  0  0  0  0
   -2.5139   -4.9066    0.3314 H   0  0  0  0  0  0
   -3.9881   -1.1806    1.9530 H   0  0  0  0  0  0
   -4.9584   -3.1977    2.2529 H   0  0  0  0  0  0
    3.8760   -2.8970   -1.2727 H   0  0  0  0  0  0
    4.0152   -1.9790   -3.5833 H   0  0  0  0  0  0
    2.1872   -0.5374   -4.4496 H   0  0  0  0  0  0
    0.2341   -0.0128   -3.0313 H   0  0  0  0  0  0
   -1.6210    2.6904   -1.0097 H   0  0  0  0  0  0
   -0.4616    4.8376   -1.3345 H   0  0  0  0  0  0
    1.9450    5.0629   -0.7670 H   0  0  0  0  0  0
    3.1877    3.1171    0.1470 H   0  0  0  0  0  0
    2.0433    0.9650    0.4990 H   0  0  0  0  0  0
  1  2  1  0  0  0
  1  9  1  0  0  0
  1 24  1  0  0  0
  1 25  1  0  0  0
  2  3  2  0  0  0
  2 18  1  0  0  0
  3  4  1  0  0  0
  3 11  1  0  0  0
  4  5  2  0  0  0
  4  9  1  0  0  0
  5  6  1  0  0  0
  5 26  1  0  0  0
  6  7  2  0  0  0
  6 27  1  0  0  0
  7  8  1  0  0  0
  7 10  1  0  0  0
  8  9  2  0  0  0
  8 28  1  0  0  0
 10 29  1  0  0  0
 11 12  2  0  0  0
 11 16  1  0  0  0
 12 13  1  0  0  0
 12 17  1  0  0  0
 13 14  2  0  0  0
 13 30  1  0  0  0
 14 15  1  0  0  0
 14 31  1  0  0  0
 15 16  2  0  0  0
 15 32  1  0  0  0
 16 33  1  0  0  0
 18 19  2  0  0  0
 18 23  1  0  0  0
 19 20  1  0  0  0
 19 34  1  0  0  0
 20 21  2  0  0  0
 20 35  1  0  0  0
 21 22  1  0  0  0
 21 36  1  0  0  0
 22 23  2  0  0  0
 22 37  1  0  0  0
 23 38  1  0  0  0
M  END
>  <Name>
tox-544

>  <substance>
2-Phenyl-3-(2-fluorophenyl)-6- hydroxyindene

>  <CASRN>


>  <from_NCI>
0

>  <RBA>
12.000000

>  <method>
RUC

>  <chemical_class>
Indene

>  <set>
0

$$$$
tox-545
  Cerius2 12190218273D 1   1.00000                          
 Structure written by MMmdl.
 38 41  0  0  0  0  0  0  0  0999 V2000
   -1.9136    0.3104    1.1955 C   0  0  0  0  0  0
   -0.6100    0.3159    0.4137 C   0  0  0  0  0  0
   -0.2576   -0.9158   -0.0348 C   0  0  0  0  0  0
   -1.2931   -1.8470    0.4463 C   0  0  0  0  0  0
   -1.4113   -3.2173    0.2675 C   0  0  0  0  0  0
   -2.5093   -3.8744    0.8326 C   0  0  0  0  0  0
   -3.4737   -3.1610    1.5616 C   0  0  0  0  0  0
   -3.3559   -1.7810    1.7340 C   0  0  0  0  0  0
   -2.2624   -1.1435    1.1693 C   0  0  0  0  0  0
    0.1022    1.5898    0.2323 C   0  0  0  0  0  0
   -0.5722    2.7176   -0.2568 C   0  0  0  0  0  0
    0.0964    3.9353   -0.4148 C   0  0  0  0  0  0
    1.4407    4.0320   -0.0778 C   0  0  0  0  0  0
    2.1283    2.9306    0.4172 C   0  0  0  0  0  0
    1.4572    1.7135    0.5742 C   0  0  0  0  0  0
    2.0589    5.2357   -0.2448 O   0  0  0  0  0  0
    0.9289   -1.2336   -0.8423 C   0  0  0  0  0  0
    1.0899   -0.6919   -2.1246 C   0  0  0  0  0  0
    2.2172   -1.0034   -2.8886 C   0  0  0  0  0  0
    3.1904   -1.8612   -2.3791 C   0  0  0  0  0  0
    3.0377   -2.4093   -1.1067 C   0  0  0  0  0  0
    1.9111   -2.0984   -0.3417 C   0  0  0  0  0  0
   -2.6918    0.8978    0.6990 H   0  0  0  0  0  0
   -1.7609    0.6563    2.2227 H   0  0  0  0  0  0
   -0.6737   -3.7789   -0.2991 H   0  0  0  0  0  0
   -2.6187   -4.9505    0.7046 H   0  0  0  0  0  0
   -4.3223   -3.6900    1.9934 H   0  0  0  0  0  0
   -4.1042   -1.2262    2.2939 H   0  0  0  0  0  0
   -1.6230    2.6609   -0.5357 H   0  0  0  0  0  0
   -0.4382    4.8000   -0.8016 H   0  0  0  0  0  0
    3.1791    2.9969    0.6887 H   0  0  0  0  0  0
    2.0061    0.8633    0.9765 H   0  0  0  0  0  0
    2.9951    5.1436    0.0338 H   0  0  0  0  0  0
    0.3372   -0.0231   -2.5391 H   0  0  0  0  0  0
    2.3343   -0.5759   -3.8828 H   0  0  0  0  0  0
    4.0688   -2.1035   -2.9748 H   0  0  0  0  0  0
    3.7970   -3.0797   -0.7079 H   0  0  0  0  0  0
    1.8095   -2.5323    0.6520 H   0  0  0  0  0  0
  1  2  1  0  0  0
  1  9  1  0  0  0
  1 23  1  0  0  0
  1 24  1  0  0  0
  2  3  2  0  0  0
  2 10  1  0  0  0
  3  4  1  0  0  0
  3 17  1  0  0  0
  4  5  2  0  0  0
  4  9  1  0  0  0
  5  6  1  0  0  0
  5 25  1  0  0  0
  6  7  2  0  0  0
  6 26  1  0  0  0
  7  8  1  0  0  0
  7 27  1  0  0  0
  8  9  2  0  0  0
  8 28  1  0  0  0
 10 11  2  0  0  0
 10 15  1  0  0  0
 11 12  1  0  0  0
 11 29  1  0  0  0
 12 13  2  0  0  0
 12 30  1  0  0  0
 13 14  1  0  0  0
 13 16  1  0  0  0
 14 15  2  0  0  0
 14 31  1  0  0  0
 15 32  1  0  0  0
 16 33  1  0  0  0
 17 18  2  0  0  0
 17 22  1  0  0  0
 18 19  1  0  0  0
 18 34  1  0  0  0
 19 20  2  0  0  0
 19 35  1  0  0  0
 20 21  1  0  0  0
 20 36  1  0  0  0
 21 22  2  0  0  0
 21 37  1  0  0  0
 22 38  1  0  0  0
M  END
>  <Name>
tox-545

>  <substance>
3-Phenyl-4'-hydroxy-2-phenylindene

>  <CASRN>


>  <from_NCI>
0

>  <RBA>
0.200000

>  <method>
RUC

>  <chemical_class>
Indene

>  <set>
0

$$$$
tox-546
  Cerius2 12190218273D 1   1.00000                          
 Structure written by MMmdl.
 38 41  0  0  0  0  0  0  0  0999 V2000
   -1.8747    0.3681    0.7474 C   0  0  0  0  0  0
   -0.5900    0.3850   -0.0646 C   0  0  0  0  0  0
   -0.2283   -0.8459   -0.5078 C   0  0  0  0  0  0
   -1.2369   -1.7879    0.0077 C   0  0  0  0  0  0
   -1.3361   -3.1624   -0.1534 C   0  0  0  0  0  0
   -2.4099   -3.8308    0.4448 C   0  0  0  0  0  0
   -3.3617   -3.1188    1.1845 C   0  0  0  0  0  0
   -3.2720   -1.7384    1.3447 C   0  0  0  0  0  0
   -2.2011   -1.0915    0.7460 C   0  0  0  0  0  0
    0.0973    1.6682   -0.2761 C   0  0  0  0  0  0
   -0.6062    2.7803   -0.7585 C   0  0  0  0  0  0
    0.0381    4.0068   -0.9440 C   0  0  0  0  0  0
    1.3918    4.1375   -0.6429 C   0  0  0  0  0  0
    2.1015    3.0433   -0.1544 C   0  0  0  0  0  0
    1.4572    1.8170    0.0308 C   0  0  0  0  0  0
   -4.3870   -3.8255    1.7437 O   0  0  0  0  0  0
    0.9436   -1.1543   -1.3399 C   0  0  0  0  0  0
    1.0652   -0.6251   -2.6318 C   0  0  0  0  0  0
    2.1781   -0.9285   -3.4197 C   0  0  0  0  0  0
    3.1763   -1.7659   -2.9247 C   0  0  0  0  0  0
    3.0630   -2.3015   -1.6430 C   0  0  0  0  0  0
    1.9507   -1.9986   -0.8540 C   0  0  0  0  0  0
   -2.6736    0.9372    0.2627 H   0  0  0  0  0  0
   -1.7039    0.7283    1.7668 H   0  0  0  0  0  0
   -0.6029   -3.7185   -0.7307 H   0  0  0  0  0  0
   -2.5033   -4.9090    0.3310 H   0  0  0  0  0  0
   -4.0085   -1.1783    1.9127 H   0  0  0  0  0  0
   -1.6627    2.7043   -1.0108 H   0  0  0  0  0  0
   -0.5195    4.8604   -1.3257 H   0  0  0  0  0  0
    1.8932    5.0928   -0.7873 H   0  0  0  0  0  0
    3.1583    3.1427    0.0867 H   0  0  0  0  0  0
    2.0304    0.9803    0.4272 H   0  0  0  0  0  0
   -4.9678   -3.1986    2.2258 H   0  0  0  0  0  0
    0.2926    0.0279   -3.0350 H   0  0  0  0  0  0
    2.2645   -0.5107   -4.4211 H   0  0  0  0  0  0
    4.0434   -2.0019   -3.5391 H   0  0  0  0  0  0
    3.8418   -2.9559   -1.2554 H   0  0  0  0  0  0
    1.8800   -2.4225    0.1467 H   0  0  0  0  0  0
  1  2  1  0  0  0
  1  9  1  0  0  0
  1 23  1  0  0  0
  1 24  1  0  0  0
  2  3  2  0  0  0
  2 10  1  0  0  0
  3  4  1  0  0  0
  3 17  1  0  0  0
  4  5  2  0  0  0
  4  9  1  0  0  0
  5  6  1  0  0  0
  5 25  1  0  0  0
  6  7  2  0  0  0
  6 26  1  0  0  0
  7  8  1  0  0  0
  7 16  1  0  0  0
  8  9  2  0  0  0
  8 27  1  0  0  0
 10 11  2  0  0  0
 10 15  1  0  0  0
 11 12  1  0  0  0
 11 28  1  0  0  0
 12 13  2  0  0  0
 12 29  1  0  0  0
 13 14  1  0  0  0
 13 30  1  0  0  0
 14 15  2  0  0  0
 14 31  1  0  0  0
 15 32  1  0  0  0
 16 33  1  0  0  0
 17 18  2  0  0  0
 17 22  1  0  0  0
 18 19  1  0  0  0
 18 34  1  0  0  0
 19 20  2  0  0  0
 19 35  1  0  0  0
 20 21  1  0  0  0
 20 36  1  0  0  0
 21 22  2  0  0  0
 21 37  1  0  0  0
 22 38  1  0  0  0
M  END
>  <Name>
tox-546

>  <substance>
3-Phenyl-6-hydroxy-2-phenylindene

>  <CASRN>


>  <from_NCI>
0

>  <RBA>
8.900000

>  <method>
RUC

>  <chemical_class>
Indene

>  <set>
0

$$$$
tox-547
  Cerius2 12190218273D 1   1.00000                          
 Structure written by MMmdl.
 41 44  0  0  0  0  0  0  0  0999 V2000
   -1.8858    0.3768    0.8273 C   0  0  0  0  0  0
   -0.6246    0.3336   -0.0201 C   0  0  0  0  0  0
   -0.3795   -0.8968   -0.5372 C   0  0  0  0  0  0
   -1.4607   -1.7752   -0.0620 C   0  0  0  0  0  0
   -1.6883   -3.1208   -0.3118 C   0  0  0  0  0  0
   -2.8069   -3.7313    0.2671 C   0  0  0  0  0  0
   -3.6744   -2.9861    1.0761 C   0  0  0  0  0  0
   -3.4546   -1.6337    1.3230 C   0  0  0  0  0  0
   -2.3422   -1.0450    0.7428 C   0  0  0  0  0  0
   -4.7700   -3.5663    1.6475 O   0  0  0  0  0  0
    0.7364   -1.2500   -1.4296 C   0  0  0  0  0  0
    1.8299   -2.0294   -0.9981 C   0  0  0  0  0  0
    2.8426   -2.3534   -1.9173 C   0  0  0  0  0  0
    2.7866   -1.8973   -3.2346 C   0  0  0  0  0  0
    1.7143   -1.1177   -3.6552 C   0  0  0  0  0  0
    0.6939   -0.7981   -2.7591 C   0  0  0  0  0  0
    1.9338   -2.5571    0.4084 C   0  0  0  0  0  0
    0.1527    1.5682   -0.2053 C   0  0  0  0  0  0
   -0.4776    2.7448   -0.6333 C   0  0  0  0  0  0
    0.2509    3.9264   -0.7974 C   0  0  0  0  0  0
    1.6175    3.9472   -0.5297 C   0  0  0  0  0  0
    2.2557    2.7879   -0.0960 C   0  0  0  0  0  0
    1.5269    1.6066    0.0679 C   0  0  0  0  0  0
   -2.6424    1.0444    0.4045 H   0  0  0  0  0  0
   -1.6580    0.6529    1.8617 H   0  0  0  0  0  0
   -1.0175   -3.6978   -0.9425 H   0  0  0  0  0  0
   -2.9898   -4.7869    0.0775 H   0  0  0  0  0  0
   -4.1337   -1.0597    1.9460 H   0  0  0  0  0  0
   -4.7914   -4.5116    1.3856 H   0  0  0  0  0  0
    3.6897   -2.9659   -1.6089 H   0  0  0  0  0  0
    3.5817   -2.1528   -3.9329 H   0  0  0  0  0  0
    1.6680   -0.7608   -4.6823 H   0  0  0  0  0  0
   -0.1427   -0.1931   -3.1069 H   0  0  0  0  0  0
    1.6542   -1.7929    1.1402 H   0  0  0  0  0  0
    2.9618   -2.8545    0.6427 H   0  0  0  0  0  0
    1.2906   -3.4333    0.5317 H   0  0  0  0  0  0
   -1.5426    2.7549   -0.8597 H   0  0  0  0  0  0
   -0.2512    4.8308   -1.1365 H   0  0  0  0  0  0
    2.1848    4.8674   -0.6573 H   0  0  0  0  0  0
    3.3227    2.8012    0.1192 H   0  0  0  0  0  0
    2.0468    0.7187    0.4225 H   0  0  0  0  0  0
  1  2  1  0  0  0
  1  9  1  0  0  0
  1 24  1  0  0  0
  1 25  1  0  0  0
  2  3  2  0  0  0
  2 18  1  0  0  0
  3  4  1  0  0  0
  3 11  1  0  0  0
  4  5  2  0  0  0
  4  9  1  0  0  0
  5  6  1  0  0  0
  5 26  1  0  0  0
  6  7  2  0  0  0
  6 27  1  0  0  0
  7  8  1  0  0  0
  7 10  1  0  0  0
  8  9  2  0  0  0
  8 28  1  0  0  0
 10 29  1  0  0  0
 11 12  2  0  0  0
 11 16  1  0  0  0
 12 13  1  0  0  0
 12 17  1  0  0  0
 13 14  2  0  0  0
 13 30  1  0  0  0
 14 15  1  0  0  0
 14 31  1  0  0  0
 15 16  2  0  0  0
 15 32  1  0  0  0
 16 33  1  0  0  0
 17 34  1  0  0  0
 17 35  1  0  0  0
 17 36  1  0  0  0
 18 19  2  0  0  0
 18 23  1  0  0  0
 19 20  1  0  0  0
 19 37  1  0  0  0
 20 21  2  0  0  0
 20 38  1  0  0  0
 21 22  1  0  0  0
 21 39  1  0  0  0
 22 23  2  0  0  0
 22 40  1  0  0  0
 23 41  1  0  0  0
M  END
>  <Name>
tox-547

>  <substance>
2-Phenyl-3-(2-methylphenyl)-6- hydroxyindene

>  <CASRN>


>  <from_NCI>
0

>  <RBA>
11.000000

>  <method>
RUC

>  <chemical_class>
Indene

>  <set>
0

$$$$
tox-548
  Cerius2 12190218273D 1   1.00000                          
 Structure written by MMmdl.
 41 44  0  0  0  0  0  0  0  0999 V2000
   -2.4344    0.3765    1.1195 C   0  0  0  0  0  0
   -1.1148    0.3940    0.3654 C   0  0  0  0  0  0
   -0.7207   -0.8402   -0.0392 C   0  0  0  0  0  0
   -1.7418   -1.7844    0.4468 C   0  0  0  0  0  0
   -1.8197   -3.1624    0.3049 C   0  0  0  0  0  0
   -2.9125   -3.8325    0.8656 C   0  0  0  0  0  0
   -3.9037   -3.1187    1.5497 C   0  0  0  0  0  0
   -3.8354   -1.7349    1.6901 C   0  0  0  0  0  0
   -2.7454   -1.0864    1.1290 C   0  0  0  0  0  0
   -4.9459   -3.8273    2.0744 O   0  0  0  0  0  0
    0.4909   -1.1498   -0.8116 C   0  0  0  0  0  0
    0.6652   -0.6448   -2.1058 C   0  0  0  0  0  0
    1.8163   -0.9501   -2.8383 C   0  0  0  0  0  0
    2.8149   -1.7596   -2.2856 C   0  0  0  0  0  0
    2.6332   -2.2806   -0.9998 C   0  0  0  0  0  0
    1.4821   -1.9751   -0.2675 C   0  0  0  0  0  0
    4.0349   -2.1140   -3.0847 C   0  0  0  0  0  0
   -0.4324    1.6812    0.1624 C   0  0  0  0  0  0
   -1.1255    2.7770   -0.3699 C   0  0  0  0  0  0
   -0.4867    4.0075   -0.5478 C   0  0  0  0  0  0
    0.8507    4.1588   -0.1892 C   0  0  0  0  0  0
    1.5495    3.0811    0.3493 C   0  0  0  0  0  0
    0.9108    1.8507    0.5267 C   0  0  0  0  0  0
   -3.2167    0.9284    0.5898 H   0  0  0  0  0  0
   -2.3133    0.7559    2.1391 H   0  0  0  0  0  0
   -1.0556   -3.7200   -0.2294 H   0  0  0  0  0  0
   -2.9897   -4.9133    0.7662 H   0  0  0  0  0  0
   -4.6024   -1.1736    2.2150 H   0  0  0  0  0  0
   -5.5541   -3.1988    2.5194 H   0  0  0  0  0  0
   -0.0968   -0.0112   -2.5574 H   0  0  0  0  0  0
    1.9261   -0.5492   -3.8452 H   0  0  0  0  0  0
    3.3880   -2.9287   -0.5558 H   0  0  0  0  0  0
    1.3688   -2.3857    0.7349 H   0  0  0  0  0  0
    4.8947   -2.2864   -2.4289 H   0  0  0  0  0  0
    4.3045   -1.3005   -3.7663 H   0  0  0  0  0  0
    3.8484   -3.0198   -3.6698 H   0  0  0  0  0  0
   -2.1688    2.6846   -0.6674 H   0  0  0  0  0  0
   -1.0358    4.8481   -0.9685 H   0  0  0  0  0  0
    1.3478    5.1172   -0.3275 H   0  0  0  0  0  0
    2.5933    3.1967    0.6355 H   0  0  0  0  0  0
    1.4747    1.0274    0.9625 H   0  0  0  0  0  0
  1  2  1  0  0  0
  1  9  1  0  0  0
  1 24  1  0  0  0
  1 25  1  0  0  0
  2  3  2  0  0  0
  2 18  1  0  0  0
  3  4  1  0  0  0
  3 11  1  0  0  0
  4  5  2  0  0  0
  4  9  1  0  0  0
  5  6  1  0  0  0
  5 26  1  0  0  0
  6  7  2  0  0  0
  6 27  1  0  0  0
  7  8  1  0  0  0
  7 10  1  0  0  0
  8  9  2  0  0  0
  8 28  1  0  0  0
 10 29  1  0  0  0
 11 12  2  0  0  0
 11 16  1  0  0  0
 12 13  1  0  0  0
 12 30  1  0  0  0
 13 14  2  0  0  0
 13 31  1  0  0  0
 14 15  1  0  0  0
 14 17  1  0  0  0
 15 16  2  0  0  0
 15 32  1  0  0  0
 16 33  1  0  0  0
 17 34  1  0  0  0
 17 35  1  0  0  0
 17 36  1  0  0  0
 18 19  2  0  0  0
 18 23  1  0  0  0
 19 20  1  0  0  0
 19 37  1  0  0  0
 20 21  2  0  0  0
 20 38  1  0  0  0
 21 22  1  0  0  0
 21 39  1  0  0  0
 22 23  2  0  0  0
 22 40  1  0  0  0
 23 41  1  0  0  0
M  END
>  <Name>
tox-548

>  <substance>
2-Phenyl-3-(4-methylphenyl)-6- hydroxyindene

>  <CASRN>


>  <from_NCI>
0

>  <RBA>
1.700000

>  <method>
RUC

>  <chemical_class>
Indene

>  <set>
0

$$$$
tox-549
  Cerius2 12190218273D 1   1.00000                          
 Structure written by MMmdl.
 23 24  0  0  0  0  0  0  0  0999 V2000
   -0.7416   -0.0505   -0.0570 C   0  0  0  0  0  0
    0.7426   -0.0164   -0.0662 C   0  0  0  0  0  0
   -1.4782    0.7867    0.7985 C   0  0  0  0  0  0
   -1.4454   -0.9628   -0.8622 C   0  0  0  0  0  0
    1.4953    0.9087   -0.8650 C   0  0  0  0  0  0
    1.3999   -0.9580    0.7667 C   0  0  0  0  0  0
   -2.8741    0.7215    0.8397 C   0  0  0  0  0  0
   -2.8412   -1.0279   -0.8214 C   0  0  0  0  0  0
    2.9014    0.7936   -0.7416 C   0  0  0  0  0  0
    0.9896    1.7859   -1.6454 O   0  0  0  0  0  0
    2.7864   -1.0206    0.8432 C   0  0  0  0  0  0
   -3.5544   -0.1854    0.0293 C   0  0  0  0  0  0
    3.5397   -0.1411    0.0863 C   0  0  0  0  0  0
   -0.9595    1.4970    1.4414 H   0  0  0  0  0  0
   -0.9015   -1.6314   -1.5286 H   0  0  0  0  0  0
    0.8112   -1.6528    1.3668 H   0  0  0  0  0  0
   -3.4288    1.3788    1.5069 H   0  0  0  0  0  0
   -3.3703   -1.7389   -1.4535 H   0  0  0  0  0  0
    3.5456    1.4644   -1.3191 H   0  0  0  0  0  0
    3.2702   -1.7499    1.4889 H   0  0  0  0  0  0
   -4.6413   -0.2367    0.0617 H   0  0  0  0  0  0
    4.6269   -0.1719    0.1305 H   0  0  0  0  0  0
    1.6135    2.2253   -2.0198 H   0  0  0  0  0  0
  1  2  1  0  0  0
  1  3  2  0  0  0
  1  4  1  0  0  0
  2  5  2  0  0  0
  2  6  1  0  0  0
  3  7  1  0  0  0
  3 14  1  0  0  0
  4  8  2  0  0  0
  4 15  1  0  0  0
  5  9  1  0  0  0
  5 10  1  0  0  0
  6 11  2  0  0  0
  6 16  1  0  0  0
  7 12  2  0  0  0
  7 17  1  0  0  0
  8 12  1  0  0  0
  8 18  1  0  0  0
  9 13  2  0  0  0
  9 19  1  0  0  0
 10 23  1  0  0  0
 11 13  1  0  0  0
 11 20  1  0  0  0
 12 21  1  0  0  0
 13 22  1  0  0  0
M  END
>  <Name>
tox-549

>  <substance>
2-Phenylphenol

>  <CASRN>
90-43-7

>  <from_NCI>
1

>  <RBA>
0.000000

>  <method>
RUC

>  <chemical_class>
Biphenyl; Phenol

>  <set>
2

$$$$
tox-550
  Cerius2 12190218273D 1   1.00000                          
 Structure written by MMmdl.
 23 24  0  0  0  0  0  0  0  0999 V2000
   -0.6488    0.2347   -0.0034 C   0  0  0  0  0  0
    0.6338   -0.4988    0.0038 C   0  0  0  0  0  0
   -0.7372    1.5648    0.4764 C   0  0  0  0  0  0
   -1.8194   -0.3606   -0.4849 C   0  0  0  0  0  0
    0.7201   -1.8097    0.5062 C   0  0  0  0  0  0
    1.8114    0.0866   -0.4942 C   0  0  0  0  0  0
   -1.9276    2.3280    0.4999 C   0  0  0  0  0  0
   -3.0175    0.3465   -0.4849 C   0  0  0  0  0  0
    1.9329   -2.5062    0.5117 C   0  0  0  0  0  0
    3.0251   -0.6084   -0.4902 C   0  0  0  0  0  0
   -3.0595    1.6608   -0.0012 C   0  0  0  0  0  0
   -1.9717    3.5206    0.9398 O   0  0  0  0  0  0
    3.0849   -1.9048    0.0131 C   0  0  0  0  0  0
    0.1771    2.0261    0.8642 H   0  0  0  0  0  0
   -1.8077   -1.3772   -0.8748 H   0  0  0  0  0  0
   -0.1636   -2.3020    0.9118 H   0  0  0  0  0  0
    1.7918    1.0962   -0.9043 H   0  0  0  0  0  0
   -3.9254   -0.1201   -0.8633 H   0  0  0  0  0  0
    1.9749   -3.5193    0.9082 H   0  0  0  0  0  0
    3.9228   -0.1346   -0.8836 H   0  0  0  0  0  0
   -4.0253    2.1741   -0.0226 H   0  0  0  0  0  0
    4.0292   -2.4464    0.0167 H   0  0  0  0  0  0
   -2.7657    3.8172    0.8754 H   0  0  0  0  0  0
  1  2  1  0  0  0
  1  3  2  0  0  0
  1  4  1  0  0  0
  2  5  2  0  0  0
  2  6  1  0  0  0
  3  7  1  0  0  0
  3 14  1  0  0  0
  4  8  2  0  0  0
  4 15  1  0  0  0
  5  9  1  0  0  0
  5 16  1  0  0  0
  6 10  2  0  0  0
  6 17  1  0  0  0
  7 11  2  0  0  0
  7 12  1  0  0  0
  8 11  1  0  0  0
  8 18  1  0  0  0
  9 13  2  0  0  0
  9 19  1  0  0  0
 10 13  1  0  0  0
 10 20  1  0  0  0
 11 21  1  0  0  0
 12 23  1  0  0  0
 13 22  1  0  0  0
M  END
>  <Name>
tox-550

>  <substance>
3-Phenylphenol

>  <CASRN>
580-51-8

>  <from_NCI>
1

>  <RBA>
0.000400

>  <method>
RUC

>  <chemical_class>
Biphenyl; Phenol

>  <set>
2

$$$$
tox-551
  Cerius2 12190218273D 1   1.00000                          
 Structure written by MMmdl.
 23 24  0  0  0  0  0  0  0  0999 V2000
   -0.6054    0.0000    0.0034 C   0  0  0  0  0  0
    0.8708    0.0000   -0.0073 C   0  0  0  0  0  0
   -1.3432   -1.0946   -0.4588 C   0  0  0  0  0  0
   -1.3364    1.0945    0.4763 C   0  0  0  0  0  0
    1.6035   -1.1068    0.4578 C   0  0  0  0  0  0
    1.5966    1.1068   -0.4832 C   0  0  0  0  0  0
   -2.7513   -1.0860   -0.4457 C   0  0  0  0  0  0
   -2.7446    1.0860    0.4833 C   0  0  0  0  0  0
    3.0021   -1.1077    0.4483 C   0  0  0  0  0  0
    2.9951    1.1077   -0.4943 C   0  0  0  0  0  0
   -3.5110    0.0001    0.0242 C   0  0  0  0  0  0
    3.6972    0.0000   -0.0281 C   0  0  0  0  0  0
   -4.7823    0.0001    0.0332 O   0  0  0  0  0  0
   -0.8366   -1.9762   -0.8512 H   0  0  0  0  0  0
   -0.8243    1.9761    0.8614 H   0  0  0  0  0  0
    1.0869   -1.9841    0.8467 H   0  0  0  0  0  0
    1.0743    1.9841   -0.8646 H   0  0  0  0  0  0
   -3.2599   -1.9770   -0.8257 H   0  0  0  0  0  0
   -3.2477    1.9770    0.8705 H   0  0  0  0  0  0
    3.5465   -1.9758    0.8162 H   0  0  0  0  0  0
    3.5341    1.9758   -0.8702 H   0  0  0  0  0  0
    4.7857    0.0000   -0.0361 H   0  0  0  0  0  0
   -5.0634    0.7369    0.3503 H   0  0  0  0  0  0
  1  2  1  0  0  0
  1  3  2  0  0  0
  1  4  1  0  0  0
  2  5  2  0  0  0
  2  6  1  0  0  0
  3  7  1  0  0  0
  3 14  1  0  0  0
  4  8  2  0  0  0
  4 15  1  0  0  0
  5  9  1  0  0  0
  5 16  1  0  0  0
  6 10  2  0  0  0
  6 17  1  0  0  0
  7 11  2  0  0  0
  7 18  1  0  0  0
  8 11  1  0  0  0
  8 19  1  0  0  0
  9 12  2  0  0  0
  9 20  1  0  0  0
 10 12  1  0  0  0
 10 21  1  0  0  0
 11 13  1  0  0  0
 12 22  1  0  0  0
 13 23  1  0  0  0
M  END
>  <Name>
tox-551

>  <substance>
4-Phenylphenol

>  <CASRN>
92-69-3

>  <from_NCI>
1

>  <RBA>
0.000500

>  <method>
MUC,RUC

>  <chemical_class>
Biphenyl; Phenol

>  <set>
0

$$$$
tox-552
  Cerius2 12190218273D 1   1.00000                          
 Structure written by MMmdl.
 34 35  0  0  0  0  0  0  0  0999 V2000
   -2.0259   -0.9677   -1.0877 C   0  0  0  0  0  0
   -0.7383   -1.5110   -1.6583 C   0  0  0  0  0  0
   -2.6129   -1.6728    0.0177 C   0  0  0  0  0  0
   -2.5869    0.1998   -1.7082 C   0  0  0  0  0  0
    0.5874   -0.8454   -1.2995 C   0  0  0  0  0  0
   -0.7803   -2.4491   -2.4641 O   0  0  0  0  0  0
   -3.8203   -1.1039    0.4908 C   0  0  0  0  0  0
   -2.1320   -2.7226    0.5701 O   0  0  0  0  0  0
   -3.7954    0.6437   -1.1185 C   0  0  0  0  0  0
   -2.0893    0.8210   -2.7103 O   0  0  0  0  0  0
    0.6379   -0.1320    0.0505 C   0  0  0  0  0  0
   -4.4575    0.0438   -0.0265 C   0  0  0  0  0  0
    2.0177    0.4077    0.3451 C   0  0  0  0  0  0
   -5.5453    0.4996    0.4517 O   0  0  0  0  0  0
    2.9533   -0.3555    1.0421 C   0  0  0  0  0  0
    2.4021    1.6732   -0.0954 C   0  0  0  0  0  0
    4.2401    0.1505    1.2973 C   0  0  0  0  0  0
    3.6940    2.1602    0.1708 C   0  0  0  0  0  0
    4.6662    1.4252    0.8765 C   0  0  0  0  0  0
    5.8322    1.8744    1.1128 O   0  0  0  0  0  0
    0.8378   -0.1506   -2.1100 H   0  0  0  0  0  0
    1.3456   -1.6394   -1.3082 H   0  0  0  0  0  0
   -4.3081   -1.6027    1.3403 H   0  0  0  0  0  0
   -4.2645    1.5375   -1.5540 H   0  0  0  0  0  0
    0.3394   -0.8156    0.8547 H   0  0  0  0  0  0
   -0.0808    0.6959    0.0813 H   0  0  0  0  0  0
    2.6988   -1.3535    1.3973 H   0  0  0  0  0  0
    1.7052    2.2998   -0.6512 H   0  0  0  0  0  0
    4.9303   -0.4932    1.8507 H   0  0  0  0  0  0
    3.9371    3.1612   -0.1977 H   0  0  0  0  0  0
   -2.6429   -2.9690    1.2032 H   0  0  0  0  0  0
   -2.5862    1.4812   -2.9096 H   0  0  0  0  0  0
   -5.7784    1.1914    0.0162 H   0  0  0  0  0  0
    5.9070    2.6549    0.7847 H   0  0  0  0  0  0
  1  2  1  0  0  0
  1  3  2  0  0  0
  1  4  1  0  0  0
  2  5  1  0  0  0
  2  6  2  0  0  0
  3  7  1  0  0  0
  3  8  1  0  0  0
  4  9  2  0  0  0
  4 10  1  0  0  0
  5 11  1  0  0  0
  5 21  1  0  0  0
  5 22  1  0  0  0
  7 12  2  0  0  0
  7 23  1  0  0  0
  8 31  1  0  0  0
  9 12  1  0  0  0
  9 24  1  0  0  0
 10 32  1  0  0  0
 11 13  1  0  0  0
 11 25  1  0  0  0
 11 26  1  0  0  0
 12 14  1  0  0  0
 13 15  2  0  0  0
 13 16  1  0  0  0
 14 33  1  0  0  0
 15 17  1  0  0  0
 15 27  1  0  0  0
 16 18  2  0  0  0
 16 28  1  0  0  0
 17 19  2  0  0  0
 17 29  1  0  0  0
 18 19  1  0  0  0
 18 30  1  0  0  0
 19 20  1  0  0  0
 20 34  1  0  0  0
M  END
>  <Name>
tox-552

>  <substance>
Phloretin

>  <CASRN>
60-82-2

>  <from_NCI>
1

>  <RBA>
0.100000

>  <method>
hERa,RUC

>  <chemical_class>
Chalconoid

>  <set>
2

$$$$
tox-553
  Cerius2 12190218273D 1   1.00000                          
 Structure written by MMmdl.
 46 47  0  0  0  0  0  0  0  0999 V2000
   -2.8113    1.0216   -0.1755 C   0  0  0  0  0  0
   -1.4183    0.4591   -0.3699 C   0  0  0  0  0  0
   -2.3567    0.5816   -1.5612 C   0  0  0  0  0  0
   -3.7960    0.2323    0.5782 C   0  0  0  0  0  0
   -0.2255    1.3249   -0.2112 C   0  0  0  0  0  0
   -2.1339    1.6651   -2.5893 C   0  0  0  0  0  0
   -2.8519   -0.7118   -2.1675 C   0  0  0  0  0  0
   -3.7885   -0.0474    1.8961 C   0  0  0  0  0  0
    0.9142    0.5921   -0.3034 O   0  0  0  0  0  0
   -0.2873    2.5330   -0.0227 O   0  0  0  0  0  0
   -4.8746   -0.8811    2.5217 C   0  0  0  0  0  0
   -2.7330    0.4275    2.8563 C   0  0  0  0  0  0
    2.1346    1.3245   -0.1271 C   0  0  0  0  0  0
    3.2180    0.3200    0.1605 C   0  0  0  0  0  0
    2.5586    2.0062   -1.4236 C   0  0  0  0  0  0
    4.1620    0.2375   -0.7901 C   0  0  0  0  0  0
    3.1424   -0.4769    1.4220 C   0  0  0  0  0  0
    3.7958    1.2480   -1.8023 C   0  0  0  0  0  0
    5.3922   -0.5899   -0.8981 C   0  0  0  0  0  0
    4.4491    1.4556   -2.8194 O   0  0  0  0  0  0
    5.1229   -1.8088   -1.6773 C   0  0  0  0  0  0
    4.9092   -2.8074   -2.3098 C   0  0  0  0  0  0
   -2.8994    2.0914   -0.0011 H   0  0  0  0  0  0
   -1.2472   -0.5477    0.0030 H   0  0  0  0  0  0
   -4.6292   -0.1468   -0.0157 H   0  0  0  0  0  0
   -1.3114    1.3901   -3.2583 H   0  0  0  0  0  0
   -1.8944    2.6326   -2.1372 H   0  0  0  0  0  0
   -3.0359    1.8032   -3.1953 H   0  0  0  0  0  0
   -2.1861   -1.0287   -2.9777 H   0  0  0  0  0  0
   -3.8561   -0.5773   -2.5833 H   0  0  0  0  0  0
   -2.8919   -1.5293   -1.4397 H   0  0  0  0  0  0
   -5.4036   -0.3030    3.2862 H   0  0  0  0  0  0
   -4.4443   -1.7706    2.9939 H   0  0  0  0  0  0
   -5.6142   -1.2194    1.7887 H   0  0  0  0  0  0
   -3.1937    1.0000    3.6683 H   0  0  0  0  0  0
   -1.9872    1.0746    2.3869 H   0  0  0  0  0  0
   -2.2070   -0.4290    3.2908 H   0  0  0  0  0  0
    2.0479    2.0399    0.7002 H   0  0  0  0  0  0
    2.8290    3.0520   -1.2484 H   0  0  0  0  0  0
    1.8103    1.9272   -2.2166 H   0  0  0  0  0  0
    3.9557   -1.2035    1.5055 H   0  0  0  0  0  0
    2.2000   -1.0323    1.4697 H   0  0  0  0  0  0
    3.1953    0.1872    2.2906 H   0  0  0  0  0  0
    5.7602   -0.8630    0.0967 H   0  0  0  0  0  0
    6.1967   -0.0122   -1.3675 H   0  0  0  0  0  0
    4.7219   -3.6947   -2.8728 H   0  0  0  0  0  0
  1  2  1  0  0  0
  1  3  1  0  0  0
  1  4  1  0  0  0
  1 23  1  0  0  0
  2  3  1  0  0  0
  2  5  1  0  0  0
  2 24  1  0  0  0
  3  6  1  0  0  0
  3  7  1  0  0  0
  4  8  2  0  0  0
  4 25  1  0  0  0
  5  9  1  0  0  0
  5 10  2  0  0  0
  6 26  1  0  0  0
  6 27  1  0  0  0
  6 28  1  0  0  0
  7 29  1  0  0  0
  7 30  1  0  0  0
  7 31  1  0  0  0
  8 11  1  0  0  0
  8 12  1  0  0  0
  9 13  1  0  0  0
 11 32  1  0  0  0
 11 33  1  0  0  0
 11 34  1  0  0  0
 12 35  1  0  0  0
 12 36  1  0  0  0
 12 37  1  0  0  0
 13 14  1  0  0  0
 13 15  1  0  0  0
 13 38  1  0  0  0
 14 16  2  0  0  0
 14 17  1  0  0  0
 15 18  1  0  0  0
 15 39  1  0  0  0
 15 40  1  0  0  0
 16 18  1  0  0  0
 16 19  1  0  0  0
 17 41  1  0  0  0
 17 42  1  0  0  0
 17 43  1  0  0  0
 18 20  2  0  0  0
 19 21  1  0  0  0
 19 44  1  0  0  0
 19 45  1  0  0  0
 21 22  3  0  0  0
 22 46  1  0  0  0
M  END
>  <Name>
tox-553

>  <substance>
Prallethrin

>  <CASRN>
23031-36-9

>  <from_NCI>
1

>  <RBA>
0.000000

>  <method>
hERa-FP

>  <chemical_class>
Pyrethrin; Pyrethroid

>  <set>
0

$$$$
tox-554
  Cerius2 12190218273D 1   1.00000                          
 Structure written by MMmdl.
 53 56  0  0  0  0  0  0  0  0999 V2000
   -7.7179   -4.5224   13.1301 C   0  0  0  0  0  0
   -6.9546   -4.5178   11.7700 C   0  0  0  0  0  0
   -6.8724   -3.9065   14.3109 C   0  0  0  0  0  0
   -9.1393   -3.9158   12.9911 C   0  0  0  0  0  0
   -7.8415   -5.1700   10.7027 C   0  0  0  0  0  0
   -5.6173   -5.2559   11.9160 C   0  0  0  0  0  0
   -5.4741   -4.5404   14.3257 C   0  0  0  0  0  0
   -7.6070   -4.2111   15.6502 C   0  0  0  0  0  0
   -6.7064   -2.3768   14.1675 C   0  0  0  0  0  0
   -9.9521   -4.5089   11.8258 C   0  0  0  0  0  0
   -9.1870   -4.4359   10.4953 C   0  0  0  0  0  0
   -7.2929   -5.3199    9.2902 C   0  0  0  0  0  0
   -4.7536   -4.6238   12.9997 C   0  0  0  0  0  0
   -4.8678   -4.9899   15.4396 C   0  0  0  0  0  0
   -6.7407   -4.0110   16.8855 C   0  0  0  0  0  0
   -9.7705   -5.2909    9.3419 C   0  0  0  0  0  0
   -9.0345   -2.9583   10.0547 C   0  0  0  0  0  0
   -8.5445   -5.5819    8.4375 C   0  0  0  0  0  0
   -5.4751   -4.8209   16.7799 C   0  0  0  0  0  0
  -10.9503   -4.6827    8.5809 C   0  0  0  0  0  0
   -4.9011   -5.2783   17.7707 O   0  0  0  0  0  0
  -11.4765   -3.3581    9.0724 C   0  0  0  0  0  0
  -11.4618   -5.2255    7.5956 O   0  0  0  0  0  0
   -7.8748   -5.5840   13.3822 H   0  0  0  0  0  0
   -6.7323   -3.4872   11.4727 H   0  0  0  0  0  0
   -9.0783   -2.8304   12.8642 H   0  0  0  0  0  0
   -9.7095   -4.0861   13.9109 H   0  0  0  0  0  0
   -8.0575   -6.1931   11.0546 H   0  0  0  0  0  0
   -5.0656   -5.2301   10.9692 H   0  0  0  0  0  0
   -5.7930   -6.3132   12.1531 H   0  0  0  0  0  0
   -7.9540   -5.2541   15.6467 H   0  0  0  0  0  0
   -8.5029   -3.5870   15.7513 H   0  0  0  0  0  0
   -6.0067   -1.9767   14.9107 H   0  0  0  0  0  0
   -7.6570   -1.8527   14.3117 H   0  0  0  0  0  0
   -6.3203   -2.0918   13.1840 H   0  0  0  0  0  0
  -10.9075   -3.9781   11.7573 H   0  0  0  0  0  0
  -10.1943   -5.5528   12.0633 H   0  0  0  0  0  0
   -6.5788   -6.1456    9.2088 H   0  0  0  0  0  0
   -6.7847   -4.4080    8.9575 H   0  0  0  0  0  0
   -4.4596   -3.6129   12.6912 H   0  0  0  0  0  0
   -3.8244   -5.2001   13.0887 H   0  0  0  0  0  0
   -3.8829   -5.4444   15.4245 H   0  0  0  0  0  0
   -7.2940   -4.3459   17.7698 H   0  0  0  0  0  0
   -6.4739   -2.9592   17.0284 H   0  0  0  0  0  0
  -10.1203   -6.2571    9.7329 H   0  0  0  0  0  0
  -10.0153   -2.4772    9.9679 H   0  0  0  0  0  0
   -8.5428   -2.8614    9.0815 H   0  0  0  0  0  0
   -8.4554   -2.3614   10.7639 H   0  0  0  0  0  0
   -8.5707   -6.6263    8.1053 H   0  0  0  0  0  0
   -8.5124   -4.9623    7.5352 H   0  0  0  0  0  0
  -12.5234   -3.2516    8.7744 H   0  0  0  0  0  0
  -10.8941   -2.5444    8.6364 H   0  0  0  0  0  0
  -11.4294   -3.3147   10.1633 H   0  0  0  0  0  0
  1  2  1  0  0  0
  1  3  1  0  0  0
  1  4  1  0  0  0
  1 24  1  0  0  0
  2  5  1  0  0  0
  2  6  1  0  0  0
  2 25  1  0  0  0
  3  7  1  0  0  0
  3  8  1  0  0  0
  3  9  1  0  0  0
  4 10  1  0  0  0
  4 26  1  0  0  0
  4 27  1  0  0  0
  5 11  1  0  0  0
  5 12  1  0  0  0
  5 28  1  0  0  0
  6 13  1  0  0  0
  6 29  1  0  0  0
  6 30  1  0  0  0
  7 13  1  0  0  0
  7 14  2  0  0  0
  8 15  1  0  0  0
  8 31  1  0  0  0
  8 32  1  0  0  0
  9 33  1  0  0  0
  9 34  1  0  0  0
  9 35  1  0  0  0
 10 11  1  0  0  0
 10 36  1  0  0  0
 10 37  1  0  0  0
 11 16  1  0  0  0
 11 17  1  0  0  0
 12 18  1  0  0  0
 12 38  1  0  0  0
 12 39  1  0  0  0
 13 40  1  0  0  0
 13 41  1  0  0  0
 14 19  1  0  0  0
 14 42  1  0  0  0
 15 19  1  0  0  0
 15 43  1  0  0  0
 15 44  1  0  0  0
 16 18  1  0  0  0
 16 20  1  0  0  0
 16 45  1  0  0  0
 17 46  1  0  0  0
 17 47  1  0  0  0
 17 48  1  0  0  0
 18 49  1  0  0  0
 18 50  1  0  0  0
 19 21  2  0  0  0
 20 22  1  0  0  0
 20 23  2  0  0  0
 22 51  1  0  0  0
 22 52  1  0  0  0
 22 53  1  0  0  0
M  END
>  <Name>
tox-554

>  <substance>
Progesterone

>  <CASRN>
57-83-0

>  <from_NCI>
1

>  <RBA>
0.000050

>  <method>
hERa,hERa,MUC,RUC,RUC,RUC

>  <chemical_class>
Steroid, nonphenolic

>  <set>
1

$$$$
tox-555
  Cerius2 12190218273D 1   1.00000                          
 Structure written by MMmdl.
 55 58  0  0  0  0  0  0  0  0999 V2000
   -5.9290   -0.9502   -0.6018 C   0  0  0  0  0  0
   -5.9488   -2.1286   -1.3638 C   0  0  0  0  0  0
   -4.6880   -2.5197   -1.8512 C   0  0  0  0  0  0
   -4.7546   -0.2225   -0.3355 C   0  0  0  0  0  0
   -3.5114   -0.6471   -0.8148 C   0  0  0  0  0  0
   -3.4889   -1.8049   -1.6091 C   0  0  0  0  0  0
   -2.2065   -2.3635   -2.1842 C   0  0  0  0  0  0
   -1.0271   -1.3954   -2.1311 C   0  0  0  0  0  0
   -2.2396    0.1613   -0.5733 C   0  0  0  0  0  0
   -0.9677   -0.7209   -0.7585 C   0  0  0  0  0  0
   -0.8783    1.7042    0.9964 C   0  0  0  0  0  0
   -2.1956    0.9366    0.7704 C   0  0  0  0  0  0
    0.3518    0.8029    0.8137 C   0  0  0  0  0  0
    0.2695    0.1620   -0.5903 C   0  0  0  0  0  0
    1.6547   -0.4474   -0.7915 C   0  0  0  0  0  0
    2.6044    0.4988   -0.0287 C   0  0  0  0  0  0
    1.7049    1.5539    0.6572 C   0  0  0  0  0  0
   -7.0135   -2.7837   -1.5965 O   0  0  0  0  0  0
    0.4102   -0.2269    1.9739 C   0  0  0  0  0  0
    2.2294    2.1293    1.8955 N   0  0  0  0  0  0
    3.3640    3.0387    1.6940 C   0  0  0  0  0  0
    4.7341    2.3680    1.9154 C   0  0  0  0  0  0
    5.9017    3.3895    1.7731 C   0  0  0  0  0  0
    7.0308    2.7329    1.9911 O   0  0  0  0  0  0
   -6.8634   -0.5594   -0.1879 H   0  0  0  0  0  0
   -4.6202   -3.4298   -2.4567 H   0  0  0  0  0  0
   -4.8524    0.6882    0.2519 H   0  0  0  0  0  0
   -2.3675   -2.6627   -3.2269 H   0  0  0  0  0  0
   -1.9518   -3.2680   -1.6171 H   0  0  0  0  0  0
   -1.1313   -0.6373   -2.9181 H   0  0  0  0  0  0
   -0.1054   -1.9491   -2.3421 H   0  0  0  0  0  0
   -2.2335    0.9234   -1.3683 H   0  0  0  0  0  0
   -0.9572   -1.5162   -0.0023 H   0  0  0  0  0  0
   -0.8836    2.1544    1.9963 H   0  0  0  0  0  0
   -0.8384    2.5382    0.2836 H   0  0  0  0  0  0
   -2.3742    0.2458    1.6032 H   0  0  0  0  0  0
   -3.0066    1.6732    0.8079 H   0  0  0  0  0  0
    0.1837    0.9688   -1.3376 H   0  0  0  0  0  0
    1.9220   -0.5049   -1.8517 H   0  0  0  0  0  0
    1.7138   -1.4608   -0.3792 H   0  0  0  0  0  0
    3.3184    0.9771   -0.7080 H   0  0  0  0  0  0
    3.1828   -0.0822    0.6991 H   0  0  0  0  0  0
    1.5410    2.3765   -0.0545 H   0  0  0  0  0  0
    1.2818   -0.8852    1.9107 H   0  0  0  0  0  0
   -0.4708   -0.8729    2.0102 H   0  0  0  0  0  0
    0.4605    0.2843    2.9422 H   0  0  0  0  0  0
    2.5083    1.3784    2.5332 H   0  0  0  0  0  0
    3.2574    3.8436    2.4310 H   0  0  0  0  0  0
    3.3260    3.5216    0.7102 H   0  0  0  0  0  0
    4.8655    1.5532    1.1924 H   0  0  0  0  0  0
    4.7505    1.9160    2.9179 H   0  0  0  0  0  0
    5.6501    4.2222    2.4492 H   0  0  0  0  0  0
    5.7600    3.8625    0.7882 H   0  0  0  0  0  0
   -6.8295   -3.4639   -2.0718 H   0  0  0  0  0  0
    7.6878    3.2675    1.9197 H   0  0  0  0  0  0
  1  2  2  0  0  0
  1  4  1  0  0  0
  1 25  1  0  0  0
  2  3  1  0  0  0
  2 18  1  0  0  0
  3  6  2  0  0  0
  3 26  1  0  0  0
  4  5  2  0  0  0
  4 27  1  0  0  0
  5  6  1  0  0  0
  5  9  1  0  0  0
  6  7  1  0  0  0
  7  8  1  0  0  0
  7 28  1  0  0  0
  7 29  1  0  0  0
  8 10  1  0  0  0
  8 30  1  0  0  0
  8 31  1  0  0  0
  9 10  1  0  0  0
  9 12  1  0  0  0
  9 32  1  0  0  0
 10 14  1  0  0  0
 10 33  1  0  0  0
 11 12  1  0  0  0
 11 13  1  0  0  0
 11 34  1  0  0  0
 11 35  1  0  0  0
 12 36  1  0  0  0
 12 37  1  0  0  0
 13 14  1  0  0  0
 13 17  1  0  0  0
 13 19  1  0  0  0
 14 15  1  0  0  0
 14 38  1  0  0  0
 15 16  1  0  0  0
 15 39  1  0  0  0
 15 40  1  0  0  0
 16 17  1  0  0  0
 16 41  1  0  0  0
 16 42  1  0  0  0
 17 20  1  0  0  0
 17 43  1  0  0  0
 18 54  1  0  0  0
 19 44  1  0  0  0
 19 45  1  0  0  0
 19 46  1  0  0  0
 20 21  1  0  0  0
 20 47  1  0  0  0
 21 22  1  0  0  0
 21 48  1  0  0  0
 21 49  1  0  0  0
 22 23  1  0  0  0
 22 50  1  0  0  0
 22 51  1  0  0  0
 23 24  1  0  0  0
 23 52  1  0  0  0
 23 53  1  0  0  0
 24 55  1  0  0  0
M  END
>  <Name>
tox-555

>  <substance>
Prolame

>  <CASRN>
99876-41-2

>  <from_NCI>
1

>  <RBA>
0.100000

>  <method>
RUC

>  <chemical_class>
Steroid, phenolic

>  <set>
2

$$$$
tox-556
  Cerius2 12190218273D 1   1.00000                          
 Structure written by MMmdl.
 54 57  0  0  0  0  0  0  0  0999 V2000
   -7.7920   -5.1160   10.7060 C   0  0  0  0  0  0
   -9.1923   -4.4856   10.5285 C   0  0  0  0  0  0
   -6.9008   -4.4106   11.7445 C   0  0  0  0  0  0
   -7.2644   -5.2204    9.2793 C   0  0  0  0  0  0
   -9.7615   -5.3439    9.3349 C   0  0  0  0  0  0
   -9.8984   -4.6229   11.8859 C   0  0  0  0  0  0
   -9.1078   -2.9813   10.1291 C   0  0  0  0  0  0
   -7.6259   -4.2982   13.0978 C   0  0  0  0  0  0
   -5.5701   -5.1726   11.8615 C   0  0  0  0  0  0
   -8.5117   -5.4606    8.4100 C   0  0  0  0  0  0
  -10.9884   -4.7052    8.6412 C   0  0  0  0  0  0
  -10.2333   -6.7600    9.7350 C   0  0  0  0  0  0
   -9.1123   -3.9409   13.0194 C   0  0  0  0  0  0
   -6.9800   -4.4940   14.2780 C   0  0  0  0  0  0
   -4.7598   -4.6603   13.0356 C   0  0  0  0  0  0
  -11.4937   -3.3588    9.1332 C   0  0  0  0  0  0
  -11.5080   -5.2173    7.6404 O   0  0  0  0  0  0
   -5.5356   -4.7580   14.3253 C   0  0  0  0  0  0
   -7.7013   -4.4912   15.6178 C   0  0  0  0  0  0
  -12.9726   -3.1942    8.8397 C   0  0  0  0  0  0
   -4.8764   -5.0517   15.4587 C   0  0  0  0  0  0
   -6.8302   -4.1889   16.8277 C   0  0  0  0  0  0
   -5.5520   -4.9750   16.7692 C   0  0  0  0  0  0
   -5.0142   -5.4523   17.7699 O   0  0  0  0  0  0
   -7.9164   -6.1471   11.0696 H   0  0  0  0  0  0
   -6.6709   -3.3921   11.4080 H   0  0  0  0  0  0
   -6.5463   -6.0402    9.1715 H   0  0  0  0  0  0
   -6.7591   -4.2984    8.9697 H   0  0  0  0  0  0
  -10.0187   -5.6791   12.1554 H   0  0  0  0  0  0
  -10.9080   -4.1982   11.8395 H   0  0  0  0  0  0
  -10.0975   -2.5134   10.1441 H   0  0  0  0  0  0
   -8.6968   -2.8374    9.1249 H   0  0  0  0  0  0
   -8.4868   -2.3928   10.8088 H   0  0  0  0  0  0
   -4.9862   -5.0539   10.9409 H   0  0  0  0  0  0
   -5.7509   -6.2489   11.9860 H   0  0  0  0  0  0
   -8.4529   -6.4439    7.9289 H   0  0  0  0  0  0
   -8.5227   -4.7183    7.6050 H   0  0  0  0  0  0
  -10.5447   -7.3307    8.8515 H   0  0  0  0  0  0
  -11.1045   -6.7162   10.3984 H   0  0  0  0  0  0
   -9.4557   -7.3454   10.2326 H   0  0  0  0  0  0
   -9.6386   -4.1936   13.9446 H   0  0  0  0  0  0
   -9.1914   -2.8521   12.9147 H   0  0  0  0  0  0
   -4.4897   -3.6101   12.8637 H   0  0  0  0  0  0
   -3.8209   -5.2247   13.0937 H   0  0  0  0  0  0
  -10.9149   -2.5807    8.6226 H   0  0  0  0  0  0
  -11.2975   -3.2356   10.2012 H   0  0  0  0  0  0
   -8.1528   -5.4835   15.7520 H   0  0  0  0  0  0
   -8.5147   -3.7581   15.6293 H   0  0  0  0  0  0
  -13.3271   -2.2230    9.1982 H   0  0  0  0  0  0
  -13.5636   -3.9771    9.3249 H   0  0  0  0  0  0
  -13.1677   -3.2528    7.7637 H   0  0  0  0  0  0
   -3.8166   -5.2779   15.4805 H   0  0  0  0  0  0
   -7.3700   -4.4495   17.7444 H   0  0  0  0  0  0
   -6.5748   -3.1238   16.8737 H   0  0  0  0  0  0
  1  2  1  0  0  0
  1  3  1  0  0  0
  1  4  1  0  0  0
  1 25  1  0  0  0
  2  5  1  0  0  0
  2  6  1  0  0  0
  2  7  1  0  0  0
  3  8  1  0  0  0
  3  9  1  0  0  0
  3 26  1  0  0  0
  4 10  1  0  0  0
  4 27  1  0  0  0
  4 28  1  0  0  0
  5 10  1  0  0  0
  5 11  1  0  0  0
  5 12  1  0  0  0
  6 13  1  0  0  0
  6 29  1  0  0  0
  6 30  1  0  0  0
  7 31  1  0  0  0
  7 32  1  0  0  0
  7 33  1  0  0  0
  8 13  1  0  0  0
  8 14  2  0  0  0
  9 15  1  0  0  0
  9 34  1  0  0  0
  9 35  1  0  0  0
 10 36  1  0  0  0
 10 37  1  0  0  0
 11 16  1  0  0  0
 11 17  2  0  0  0
 12 38  1  0  0  0
 12 39  1  0  0  0
 12 40  1  0  0  0
 13 41  1  0  0  0
 13 42  1  0  0  0
 14 18  1  0  0  0
 14 19  1  0  0  0
 15 18  1  0  0  0
 15 43  1  0  0  0
 15 44  1  0  0  0
 16 20  1  0  0  0
 16 45  1  0  0  0
 16 46  1  0  0  0
 18 21  2  0  0  0
 19 22  1  0  0  0
 19 47  1  0  0  0
 19 48  1  0  0  0
 20 49  1  0  0  0
 20 50  1  0  0  0
 20 51  1  0  0  0
 21 23  1  0  0  0
 21 52  1  0  0  0
 22 23  1  0  0  0
 22 53  1  0  0  0
 22 54  1  0  0  0
 23 24  2  0  0  0
M  END
>  <Name>
tox-556

>  <substance>
Promegesterone

>  <CASRN>
34184-77-5

>  <from_NCI>
1

>  <RBA>
0.070000

>  <method>
MUC,RUC,RUC

>  <chemical_class>
Steroid, nonphenolic

>  <set>
2

$$$$
tox-557
  Cerius2 12190218273D 1   1.00000                          
 Structure written by MMmdl.
 35 35  0  0  0  0  0  0  0  0999 V2000
   -1.0414   -0.5549    0.3064 C   0  0  0  0  0  0
    0.0880   -0.0026   -0.1168 N   0  0  0  0  0  0
   -1.0109   -1.9079    0.4747 N   0  0  0  0  0  0
   -2.1393    0.1353    0.5565 N   0  0  0  0  0  0
    0.0891    1.3131   -0.2919 C   0  0  0  0  0  0
   -2.0886   -2.7745    0.9197 C   0  0  0  0  0  0
   -2.0405    1.4402    0.3547 C   0  0  0  0  0  0
    1.2175    1.9498   -0.7259 N   0  0  0  0  0  0
   -0.9605    2.0832   -0.0661 N   0  0  0  0  0  0
   -3.2605   -2.7751   -0.0568 C   0  0  0  0  0  0
   -2.5217   -2.4597    2.3481 C   0  0  0  0  0  0
   -3.1979    2.1411    0.6229 O   0  0  0  0  0  0
    2.4216    1.2556   -1.1393 C   0  0  0  0  0  0
   -3.0729    3.5438    0.4024 C   0  0  0  0  0  0
    3.6157    2.1895   -0.9481 C   0  0  0  0  0  0
    2.3042    0.8351   -2.6019 C   0  0  0  0  0  0
   -0.1173   -2.3365    0.2535 H   0  0  0  0  0  0
   -1.6821   -3.7939    0.9285 H   0  0  0  0  0  0
    1.1228    2.9445   -0.8985 H   0  0  0  0  0  0
   -3.9909   -3.5423    0.2216 H   0  0  0  0  0  0
   -2.9192   -2.9885   -1.0756 H   0  0  0  0  0  0
   -3.7843   -1.8145   -0.0754 H   0  0  0  0  0  0
   -3.2256   -3.2166    2.7106 H   0  0  0  0  0  0
   -3.0170   -1.4870    2.4258 H   0  0  0  0  0  0
   -1.6597   -2.4500    3.0240 H   0  0  0  0  0  0
    2.5946    0.3695   -0.5163 H   0  0  0  0  0  0
   -4.0357    4.0052    0.6425 H   0  0  0  0  0  0
   -2.8517    3.7617   -0.6482 H   0  0  0  0  0  0
   -2.3184    3.9835    1.0639 H   0  0  0  0  0  0
    4.5488    1.6937   -1.2355 H   0  0  0  0  0  0
    3.7041    2.4961    0.1000 H   0  0  0  0  0  0
    3.5139    3.0993   -1.5506 H   0  0  0  0  0  0
    3.2171    0.3315   -2.9368 H   0  0  0  0  0  0
    2.1336    1.6998   -3.2531 H   0  0  0  0  0  0
    1.4675    0.1434   -2.7475 H   0  0  0  0  0  0
  1  2  2  0  0  0
  1  3  1  0  0  0
  1  4  1  0  0  0
  2  5  1  0  0  0
  3  6  1  0  0  0
  3 17  1  0  0  0
  4  7  2  0  0  0
  5  8  1  0  0  0
  5  9  2  0  0  0
  6 10  1  0  0  0
  6 11  1  0  0  0
  6 18  1  0  0  0
  7  9  1  0  0  0
  7 12  1  0  0  0
  8 13  1  0  0  0
  8 19  1  0  0  0
 10 20  1  0  0  0
 10 21  1  0  0  0
 10 22  1  0  0  0
 11 23  1  0  0  0
 11 24  1  0  0  0
 11 25  1  0  0  0
 12 14  1  0  0  0
 13 15  1  0  0  0
 13 16  1  0  0  0
 13 26  1  0  0  0
 14 27  1  0  0  0
 14 28  1  0  0  0
 14 29  1  0  0  0
 15 30  1  0  0  0
 15 31  1  0  0  0
 15 32  1  0  0  0
 16 33  1  0  0  0
 16 34  1  0  0  0
 16 35  1  0  0  0
M  END
>  <Name>
tox-557

>  <substance>
Prometon

>  <CASRN>
1610-18-0

>  <from_NCI>
1

>  <RBA>
0.000000

>  <method>
RUC

>  <chemical_class>
Triazine

>  <set>
2

$$$$
tox-558
  Cerius2 12190218273D 1   1.00000                          
 Structure written by MMmdl.
 31 31  0  0  0  0  0  0  0  0999 V2000
   -1.1039   -0.6040   -0.4364 C   0  0  0  0  0  0
    0.0231   -1.1437    0.0162 N   0  0  0  0  0  0
   -1.1443    0.3881   -1.3044 N   0  0  0  0  0  0
   -2.2630   -1.1393    0.0505 N   0  0  0  0  0  0
    1.1662   -0.6431   -0.4409 C   0  0  0  0  0  0
    0.0532    0.8029   -1.6875 C   0  0  0  0  0  0
   -3.5803   -0.6066   -0.2395 C   0  0  0  0  0  0
    1.2372    0.3471   -1.3091 N   0  0  0  0  0  0
    2.3081   -1.2182    0.0412 N   0  0  0  0  0  0
    0.0732    2.0923   -2.8090 Cl  0  0  0  0  0  0
   -3.8990    0.5432    0.7124 C   0  0  0  0  0  0
   -4.6076   -1.7268   -0.0841 C   0  0  0  0  0  0
    3.6417   -0.7312   -0.2542 C   0  0  0  0  0  0
    4.6300   -1.8869   -0.1059 C   0  0  0  0  0  0
    4.0048    0.4049    0.6981 C   0  0  0  0  0  0
   -2.1511   -1.8530    0.7624 H   0  0  0  0  0  0
   -3.6364   -0.2504   -1.2755 H   0  0  0  0  0  0
    2.1746   -1.9277    0.7535 H   0  0  0  0  0  0
   -4.9023    0.9390    0.5229 H   0  0  0  0  0  0
   -3.1862    1.3658    0.5906 H   0  0  0  0  0  0
   -3.8524    0.2195    1.7584 H   0  0  0  0  0  0
   -5.6160   -1.3659   -0.3118 H   0  0  0  0  0  0
   -4.6117   -2.1287    0.9355 H   0  0  0  0  0  0
   -4.3831   -2.5557   -0.7646 H   0  0  0  0  0  0
    3.7054   -0.3751   -1.2899 H   0  0  0  0  0  0
    5.6493   -1.5609   -0.3379 H   0  0  0  0  0  0
    4.3735   -2.7061   -0.7868 H   0  0  0  0  0  0
    4.6251   -2.2907    0.9129 H   0  0  0  0  0  0
    5.0203    0.7660    0.5044 H   0  0  0  0  0  0
    3.9522    0.0810    1.7437 H   0  0  0  0  0  0
    3.3204    1.2520    0.5814 H   0  0  0  0  0  0
  1  2  2  0  0  0
  1  3  1  0  0  0
  1  4  1  0  0  0
  2  5  1  0  0  0
  3  6  2  0  0  0
  4  7  1  0  0  0
  4 16  1  0  0  0
  5  8  2  0  0  0
  5  9  1  0  0  0
  6  8  1  0  0  0
  6 10  1  0  0  0
  7 11  1  0  0  0
  7 12  1  0  0  0
  7 17  1  0  0  0
  9 13  1  0  0  0
  9 18  1  0  0  0
 11 19  1  0  0  0
 11 20  1  0  0  0
 11 21  1  0  0  0
 12 22  1  0  0  0
 12 23  1  0  0  0
 12 24  1  0  0  0
 13 14  1  0  0  0
 13 15  1  0  0  0
 13 25  1  0  0  0
 14 26  1  0  0  0
 14 27  1  0  0  0
 14 28  1  0  0  0
 15 29  1  0  0  0
 15 30  1  0  0  0
 15 31  1  0  0  0
M  END
>  <Name>
tox-558

>  <substance>
Propazine

>  <CASRN>
139-40-2

>  <from_NCI>
1

>  <RBA>
0.000000

>  <method>
hERa-FP

>  <chemical_class>
Triazine

>  <set>
1

$$$$
tox-559
  Cerius2 12190218273D 1   1.00000                          
 Structure written by MMmdl.
 25 25  0  0  0  0  0  0  0  0999 V2000
   -4.0978    0.4949    0.0282 C   0  0  0  0  0  0
   -4.0192   -0.9111    0.0269 C   0  0  0  0  0  0
   -2.7081   -1.4260    0.0222 C   0  0  0  0  0  0
   -1.5605   -0.6131    0.0189 C   0  0  0  0  0  0
   -1.6849    0.7759    0.0202 C   0  0  0  0  0  0
   -2.9656    1.3278    0.0251 C   0  0  0  0  0  0
   -5.0491   -1.6562    0.0296 O   0  0  0  0  0  0
   -0.5101    1.6913    0.0167 C   0  0  0  0  0  0
    0.6481    0.9846    0.0069 O   0  0  0  0  0  0
    1.8444    1.7809    0.0015 C   0  0  0  0  0  0
    3.0387    0.8353   -0.0118 C   0  0  0  0  0  0
    4.3564    1.5888   -0.0195 C   0  0  0  0  0  0
   -0.5953    2.9116    0.0215 O   0  0  0  0  0  0
   -5.0779    0.9811    0.0318 H   0  0  0  0  0  0
   -2.5540   -2.5093    0.0210 H   0  0  0  0  0  0
   -0.5844   -1.0936    0.0153 H   0  0  0  0  0  0
   -3.1060    2.4074    0.0265 H   0  0  0  0  0  0
    1.8673    2.4083    0.9001 H   0  0  0  0  0  0
    1.8539    2.4166   -0.8915 H   0  0  0  0  0  0
    2.9789    0.1803   -0.8893 H   0  0  0  0  0  0
    2.9931    0.1734    0.8614 H   0  0  0  0  0  0
    5.1953    0.8859   -0.0290 H   0  0  0  0  0  0
    4.4523    2.2203    0.8695 H   0  0  0  0  0  0
    4.4380    2.2270   -0.9051 H   0  0  0  0  0  0
   -4.8089   -2.4716    0.0282 H   0  0  0  0  0  0
  1  2  2  0  0  0
  1  6  1  0  0  0
  1 14  1  0  0  0
  2  3  1  0  0  0
  2  7  1  0  0  0
  3  4  2  0  0  0
  3 15  1  0  0  0
  4  5  1  0  0  0
  4 16  1  0  0  0
  5  6  2  0  0  0
  5  8  1  0  0  0
  6 17  1  0  0  0
  7 25  1  0  0  0
  8  9  1  0  0  0
  8 13  2  0  0  0
  9 10  1  0  0  0
 10 11  1  0  0  0
 10 18  1  0  0  0
 10 19  1  0  0  0
 11 12  1  0  0  0
 11 20  1  0  0  0
 11 21  1  0  0  0
 12 22  1  0  0  0
 12 23  1  0  0  0
 12 24  1  0  0  0
M  END
>  <Name>
tox-559

>  <substance>
Propyl paraben

>  <CASRN>
94-13-3

>  <from_NCI>
1

>  <RBA>
0.000600

>  <method>
RUC

>  <chemical_class>
Paraben

>  <set>
0

$$$$
tox-560
  Cerius2 12190218273D 1   1.00000                          
 Structure written by MMmdl.
 21 21  0  0  0  0  0  0  0  0999 V2000
    2.0422    0.0351   -0.4790 N   0  0  0  0  0  0
    1.2111   -1.0153   -0.4293 N   0  0  0  0  0  0
    0.0037   -0.4563   -0.6226 C   0  0  0  0  0  0
    0.1091    0.9478   -0.7941 C   0  0  0  0  0  0
    1.4469    1.2501   -0.6964 C   0  0  0  0  0  0
   -1.2335   -1.2937   -0.6424 C   0  0  0  0  0  0
   -1.9284   -1.3342    0.7196 C   0  0  0  0  0  0
   -3.1835   -2.1914    0.6800 C   0  0  0  0  0  0
   -0.8941    1.8151   -1.0084 O   0  0  0  0  0  0
    2.1638    2.3713   -0.7679 O   0  0  0  0  0  0
    3.3951   -0.1992   -0.3111 O   0  0  0  0  0  0
   -0.9803   -2.3137   -0.9584 H   0  0  0  0  0  0
   -1.9231   -0.8973   -1.3982 H   0  0  0  0  0  0
   -2.1962   -0.3187    1.0362 H   0  0  0  0  0  0
   -1.2436   -1.7320    1.4785 H   0  0  0  0  0  0
   -3.6638   -2.2058    1.6633 H   0  0  0  0  0  0
   -2.9450   -3.2233    0.4033 H   0  0  0  0  0  0
   -3.9040   -1.7985   -0.0444 H   0  0  0  0  0  0
   -0.5647    2.7328   -1.0949 H   0  0  0  0  0  0
    1.5569    3.1242   -0.9265 H   0  0  0  0  0  0
    3.6993    0.7250   -0.4045 H   0  0  0  0  0  0
  1  2  1  0  0  0
  1  5  1  0  0  0
  1 11  1  0  0  0
  2  3  2  0  0  0
  3  4  1  0  0  0
  3  6  1  0  0  0
  4  5  2  0  0  0
  4  9  1  0  0  0
  5 10  1  0  0  0
  6  7  1  0  0  0
  6 12  1  0  0  0
  6 13  1  0  0  0
  7  8  1  0  0  0
  7 14  1  0  0  0
  7 15  1  0  0  0
  8 16  1  0  0  0
  8 17  1  0  0  0
  8 18  1  0  0  0
  9 19  1  0  0  0
 10 20  1  0  0  0
 11 21  1  0  0  0
M  END
>  <Name>
tox-560

>  <substance>
Propylpyrazoletriol

>  <CASRN>


>  <from_NCI>
0

>  <RBA>
49.000000

>  <method>
hERa

>  <chemical_class>
Pyrazole

>  <set>
2

$$$$
tox-561
  Cerius2 12190218273D 1   1.00000                          
 Structure written by MMmdl.
 33 35  0  0  0  0  0  0  0  0999 V2000
    0.8336    0.2784    0.1630 C   0  0  0  0  0  0
    1.0091   -1.2247    0.1723 C   0  0  0  0  0  0
   -0.5174    0.8018   -0.2050 C   0  0  0  0  0  0
   -0.1490   -1.9839   -0.0898 C   0  0  0  0  0  0
   -1.4922   -0.0863   -0.4306 C   0  0  0  0  0  0
    2.2689   -1.8709    0.4350 C   0  0  0  0  0  0
   -1.3830   -1.4454   -0.3579 O   0  0  0  0  0  0
   -0.1155   -3.3774   -0.0947 C   0  0  0  0  0  0
    2.2279   -3.2936    0.4123 C   0  0  0  0  0  0
   -0.7987    2.2421   -0.3379 C   0  0  0  0  0  0
    1.7293    1.0704    0.4530 O   0  0  0  0  0  0
    1.0726   -4.0437    0.1567 C   0  0  0  0  0  0
   -0.1093    3.0230   -1.2648 C   0  0  0  0  0  0
   -1.7709    2.8652    0.4459 C   0  0  0  0  0  0
    3.3818   -1.2889    0.6747 O   0  0  0  0  0  0
   -1.3653    5.0596   -0.6268 C   0  0  0  0  0  0
   -0.3928    4.3945   -1.3978 C   0  0  0  0  0  0
   -2.0385    4.2382    0.2975 C   0  0  0  0  0  0
    0.9850   -5.4077    0.1250 O   0  0  0  0  0  0
   -1.6147    6.2997   -0.7544 O   0  0  0  0  0  0
    2.1830   -6.1408    0.3761 C   0  0  0  0  0  0
   -2.5051    0.1853   -0.7073 H   0  0  0  0  0  0
   -1.0239   -3.9406   -0.2979 H   0  0  0  0  0  0
    3.1653   -3.8198    0.6081 H   0  0  0  0  0  0
    0.6569    2.5822   -1.9013 H   0  0  0  0  0  0
   -2.3349    2.3002    1.1871 H   0  0  0  0  0  0
    0.1808    4.9540   -2.1427 H   0  0  0  0  0  0
   -2.8109    4.6699    0.9408 H   0  0  0  0  0  0
    1.9400   -7.2059    0.3138 H   0  0  0  0  0  0
    2.5609   -5.9428    1.3844 H   0  0  0  0  0  0
    2.9415   -5.9263   -0.3837 H   0  0  0  0  0  0
    3.9863   -1.8735    0.7989 H   0  0  0  0  0  0
   -2.2274    6.5231   -0.2092 H   0  0  0  0  0  0
  1  2  1  0  0  0
  1  3  1  0  0  0
  1 11  2  0  0  0
  2  4  2  0  0  0
  2  6  1  0  0  0
  3  5  2  0  0  0
  3 10  1  0  0  0
  4  7  1  0  0  0
  4  8  1  0  0  0
  5  7  1  0  0  0
  5 22  1  0  0  0
  6  9  2  0  0  0
  6 15  1  0  0  0
  8 12  2  0  0  0
  8 23  1  0  0  0
  9 12  1  0  0  0
  9 24  1  0  0  0
 10 13  2  0  0  0
 10 14  1  0  0  0
 12 19  1  0  0  0
 13 17  1  0  0  0
 13 25  1  0  0  0
 14 18  2  0  0  0
 14 26  1  0  0  0
 15 32  1  0  0  0
 16 17  2  0  0  0
 16 18  1  0  0  0
 16 20  1  0  0  0
 17 27  1  0  0  0
 18 28  1  0  0  0
 19 21  1  0  0  0
 20 33  1  0  0  0
 21 29  1  0  0  0
 21 30  1  0  0  0
 21 31  1  0  0  0
M  END
>  <Name>
tox-561

>  <substance>
Prunetin

>  <CASRN>
552-59-0

>  <from_NCI>
1

>  <RBA>
0.002000

>  <method>
RUC

>  <chemical_class>
Isoflavone

>  <set>
0

$$$$
tox-562
  Cerius2 12190218273D 1   1.00000                          
 Structure written by MMmdl.
 40 41  0  0  0  0  0  0  0  0999 V2000
    0.3357    0.6804    0.9993 C   0  0  0  0  0  0
   -0.4775   -0.6118    0.8314 C   0  0  0  0  0  0
   -1.6754   -0.4905   -0.0238 C   0  0  0  0  0  0
   -2.8188    0.1633    0.4553 C   0  0  0  0  0  0
   -3.9559    0.2766   -0.3484 C   0  0  0  0  0  0
   -3.9501   -0.2653   -1.6286 C   0  0  0  0  0  0
   -5.0799   -0.1370   -2.3817 O   0  0  0  0  0  0
   -2.8250   -0.9199   -2.1206 C   0  0  0  0  0  0
   -1.6863   -1.0312   -1.3173 C   0  0  0  0  0  0
    1.5891    0.6640    0.1221 C   0  0  0  0  0  0
    1.5593    1.2909   -1.1360 C   0  0  0  0  0  0
    2.6851    1.2898   -1.9632 C   0  0  0  0  0  0
    3.8471    0.6557   -1.5422 C   0  0  0  0  0  0
    4.9269    0.6757   -2.3752 O   0  0  0  0  0  0
    3.9012    0.0187   -0.3081 C   0  0  0  0  0  0
    2.7739    0.0202    0.5187 C   0  0  0  0  0  0
    0.6039    1.0208    2.4877 C   0  0  0  0  0  0
    1.1615    2.4272    2.6834 C   0  0  0  0  0  0
   -0.1805   -1.7756    1.4473 C   0  0  0  0  0  0
   -0.9314   -3.0712    1.3885 C   0  0  0  0  0  0
   -0.2851    1.5139    0.6367 H   0  0  0  0  0  0
   -2.8335    0.5842    1.4591 H   0  0  0  0  0  0
   -4.8396    0.7836    0.0317 H   0  0  0  0  0  0
   -4.9265   -0.5730   -3.2470 H   0  0  0  0  0  0
   -2.8147   -1.3481   -3.1201 H   0  0  0  0  0  0
   -0.8076   -1.5444   -1.7048 H   0  0  0  0  0  0
    0.6535    1.7881   -1.4819 H   0  0  0  0  0  0
    2.6464    1.7826   -2.9314 H   0  0  0  0  0  0
    5.6556    0.1767   -1.9472 H   0  0  0  0  0  0
    4.8055   -0.4836    0.0274 H   0  0  0  0  0  0
    2.8350   -0.4922    1.4769 H   0  0  0  0  0  0
    1.2901    0.3048    2.9532 H   0  0  0  0  0  0
   -0.3399    0.9538    3.0454 H   0  0  0  0  0  0
    1.2659    2.6440    3.7512 H   0  0  0  0  0  0
    0.4926    3.1791    2.2518 H   0  0  0  0  0  0
    2.1476    2.5388    2.2230 H   0  0  0  0  0  0
    0.7076   -1.8195    2.0770 H   0  0  0  0  0  0
   -0.3126   -3.8354    0.9074 H   0  0  0  0  0  0
   -1.8775   -3.0067    0.8460 H   0  0  0  0  0  0
   -1.1576   -3.4071    2.4054 H   0  0  0  0  0  0
  1  2  1  0  0  0
  1 10  1  0  0  0
  1 17  1  0  0  0
  1 21  1  0  0  0
  2  3  1  0  0  0
  2 19  2  0  0  0
  3  4  2  0  0  0
  3  9  1  0  0  0
  4  5  1  0  0  0
  4 22  1  0  0  0
  5  6  2  0  0  0
  5 23  1  0  0  0
  6  7  1  0  0  0
  6  8  1  0  0  0
  7 24  1  0  0  0
  8  9  2  0  0  0
  8 25  1  0  0  0
  9 26  1  0  0  0
 10 11  2  0  0  0
 10 16  1  0  0  0
 11 12  1  0  0  0
 11 27  1  0  0  0
 12 13  2  0  0  0
 12 28  1  0  0  0
 13 14  1  0  0  0
 13 15  1  0  0  0
 14 29  1  0  0  0
 15 16  2  0  0  0
 15 30  1  0  0  0
 16 31  1  0  0  0
 17 18  1  0  0  0
 17 32  1  0  0  0
 17 33  1  0  0  0
 18 34  1  0  0  0
 18 35  1  0  0  0
 18 36  1  0  0  0
 19 20  1  0  0  0
 19 37  1  0  0  0
 20 38  1  0  0  0
 20 39  1  0  0  0
 20 40  1  0  0  0
M  END
>  <Name>
tox-562

>  <substance>
Pseudodiethylstilbestrol

>  <CASRN>
39011-86-4

>  <from_NCI>
0

>  <RBA>
118.000000

>  <method>
MUC,MUC

>  <chemical_class>
Bisphenol; Stilbene

>  <set>
1

$$$$
tox-563
  Cerius2 12190218273D 1   1.00000                          
 Structure written by MMmdl.
 26 29  0  0  0  0  0  0  0  0999 V2000
    0.7065   -0.0116    0.0034 C   0  0  0  0  0  0
   -0.7065   -0.0117   -0.0034 C   0  0  0  0  0  0
    1.4154   -1.2343    0.0068 C   0  0  0  0  0  0
    1.4197    1.2075    0.0069 C   0  0  0  0  0  0
   -1.4154   -1.2343   -0.0068 C   0  0  0  0  0  0
   -1.4198    1.2075   -0.0069 C   0  0  0  0  0  0
    0.6989   -2.4390    0.0033 C   0  0  0  0  0  0
    2.8190   -1.2128    0.0137 C   0  0  0  0  0  0
    0.6714    2.4755    0.0033 C   0  0  0  0  0  0
    2.8177    1.2062    0.0137 C   0  0  0  0  0  0
   -0.6989   -2.4390   -0.0034 C   0  0  0  0  0  0
   -2.8190   -1.2129   -0.0137 C   0  0  0  0  0  0
   -0.6714    2.4755   -0.0032 C   0  0  0  0  0  0
   -2.8177    1.2062   -0.0137 C   0  0  0  0  0  0
    3.5139   -0.0017    0.0171 C   0  0  0  0  0  0
   -3.5139   -0.0017   -0.0171 C   0  0  0  0  0  0
    1.2238   -3.3940    0.0058 H   0  0  0  0  0  0
    3.3853   -2.1439    0.0164 H   0  0  0  0  0  0
    1.2283    3.4084    0.0060 H   0  0  0  0  0  0
    3.3753    2.1414    0.0165 H   0  0  0  0  0  0
   -1.2238   -3.3940   -0.0058 H   0  0  0  0  0  0
   -3.3853   -2.1439   -0.0164 H   0  0  0  0  0  0
   -1.2283    3.4083   -0.0060 H   0  0  0  0  0  0
   -3.3753    2.1413   -0.0165 H   0  0  0  0  0  0
    4.6027   -0.0010    0.0224 H   0  0  0  0  0  0
   -4.6027   -0.0011   -0.0224 H   0  0  0  0  0  0
  1  2  2  0  0  0
  1  3  1  0  0  0
  1  4  1  0  0  0
  2  5  1  0  0  0
  2  6  1  0  0  0
  3  7  2  0  0  0
  3  8  1  0  0  0
  4  9  1  0  0  0
  4 10  2  0  0  0
  5 11  2  0  0  0
  5 12  1  0  0  0
  6 13  1  0  0  0
  6 14  2  0  0  0
  7 11  1  0  0  0
  7 17  1  0  0  0
  8 15  2  0  0  0
  8 18  1  0  0  0
  9 13  2  0  0  0
  9 19  1  0  0  0
 10 15  1  0  0  0
 10 20  1  0  0  0
 11 21  1  0  0  0
 12 16  2  0  0  0
 12 22  1  0  0  0
 13 23  1  0  0  0
 14 16  1  0  0  0
 14 24  1  0  0  0
 15 25  1  0  0  0
 16 26  1  0  0  0
M  END
>  <Name>
tox-563

>  <substance>
Pyrene

>  <CASRN>
129-00-0

>  <from_NCI>
1

>  <RBA>
0.000000

>  <method>
MCF-7 cells

>  <chemical_class>
Polycyclic aromatic hydrocarbon

>  <set>
0

$$$$
tox-564
  Cerius2 12190218273D 1   1.00000                          
 Structure written by MMmdl.
 62 65  0  0  0  0  0  0  0  0999 V2000
   -3.3143   -5.7523    0.8193 N   0  0  0  0  0  0
   -4.2102   -6.9057    0.6560 C   0  0  0  0  0  0
   -3.6402   -7.9161    1.6372 C   0  0  0  0  0  0
   -2.1546   -7.5871    1.7223 C   0  0  0  0  0  0
   -1.9688   -6.3405    0.8680 C   0  0  0  0  0  0
   -3.4795   -4.7861   -0.2784 C   0  0  0  0  0  0
   -2.6479   -3.5038   -0.1071 C   0  0  0  0  0  0
   -2.9583   -2.6232   -1.1962 O   0  0  0  0  0  0
   -2.2722   -1.4417   -1.2526 C   0  0  0  0  0  0
   -2.5422   -0.6618   -2.3798 C   0  0  0  0  0  0
   -1.9042    0.5676   -2.5668 C   0  0  0  0  0  0
   -0.9813    1.0325   -1.6237 C   0  0  0  0  0  0
   -0.7247    0.2573   -0.4852 C   0  0  0  0  0  0
   -1.3640   -0.9750   -0.3025 C   0  0  0  0  0  0
   -0.2999    2.3403   -1.8274 C   0  0  0  0  0  0
    1.0124    2.3426   -2.1865 C   0  0  0  0  0  0
    1.8505    1.1540   -2.4429 C   0  0  0  0  0  0
    2.8362    0.7688   -1.5221 C   0  0  0  0  0  0
    3.6231   -0.3601   -1.7599 C   0  0  0  0  0  0
    3.4337   -1.1120   -2.9182 C   0  0  0  0  0  0
    2.4589   -0.7372   -3.8413 C   0  0  0  0  0  0
    1.6707    0.3915   -3.6067 C   0  0  0  0  0  0
    1.6549    3.6451   -2.3180 N   0  0  0  0  0  0
    1.8452    4.0764   -3.4689 O   0  0  0  0  0  0
    2.0106    4.2257   -1.2771 O   0  0  0  0  0  0
   -1.0727    3.5984   -1.6433 C   0  0  0  0  0  0
   -1.5502    4.3131   -2.7473 C   0  0  0  0  0  0
   -2.2848    5.4872   -2.5590 C   0  0  0  0  0  0
   -2.5569    5.9604   -1.2726 C   0  0  0  0  0  0
   -2.0886    5.2452   -0.1702 C   0  0  0  0  0  0
   -1.3526    4.0683   -0.3547 C   0  0  0  0  0  0
   -3.2839    7.1180   -1.2294 O   0  0  0  0  0  0
   -3.5787    7.6422    0.0645 C   0  0  0  0  0  0
   -4.1682   -7.3110   -0.3632 H   0  0  0  0  0  0
   -5.2494   -6.6566    0.8925 H   0  0  0  0  0  0
   -3.8125   -8.9452    1.3070 H   0  0  0  0  0  0
   -4.1019   -7.7987    2.6248 H   0  0  0  0  0  0
   -1.5378   -8.4141    1.3554 H   0  0  0  0  0  0
   -1.8744   -7.3957    2.7645 H   0  0  0  0  0  0
   -1.2360   -5.6617    1.3150 H   0  0  0  0  0  0
   -1.6169   -6.6274   -0.1311 H   0  0  0  0  0  0
   -4.5354   -4.4897   -0.3373 H   0  0  0  0  0  0
   -3.2460   -5.2410   -1.2507 H   0  0  0  0  0  0
   -1.5795   -3.7483   -0.1251 H   0  0  0  0  0  0
   -2.9111   -3.0243    0.8436 H   0  0  0  0  0  0
   -3.2529   -1.0114   -3.1268 H   0  0  0  0  0  0
   -2.1303    1.1507   -3.4577 H   0  0  0  0  0  0
   -0.0224    0.6027    0.2722 H   0  0  0  0  0  0
   -1.1271   -1.5394    0.5954 H   0  0  0  0  0  0
    2.9953    1.3387   -0.6073 H   0  0  0  0  0  0
    4.3835   -0.6545   -1.0386 H   0  0  0  0  0  0
    4.0467   -1.9929   -3.1016 H   0  0  0  0  0  0
    2.3112   -1.3247   -4.7456 H   0  0  0  0  0  0
    0.9149    0.6690   -4.3402 H   0  0  0  0  0  0
   -1.3598    3.9647   -3.7613 H   0  0  0  0  0  0
   -2.6479    6.0332   -3.4282 H   0  0  0  0  0  0
   -2.2767    5.5699    0.8496 H   0  0  0  0  0  0
   -0.9981    3.5253    0.5205 H   0  0  0  0  0  0
   -4.1574    8.5607   -0.0731 H   0  0  0  0  0  0
   -2.6608    7.9027    0.6017 H   0  0  0  0  0  0
   -4.1934    6.9435    0.6415 H   0  0  0  0  0  0
    2.3698    4.9698   -1.4764 H   0  0  0  0  0  0
  1  2  1  0  0  0
  1  5  1  0  0  0
  1  6  1  0  0  0
  2  3  1  0  0  0
  2 34  1  0  0  0
  2 35  1  0  0  0
  3  4  1  0  0  0
  3 36  1  0  0  0
  3 37  1  0  0  0
  4  5  1  0  0  0
  4 38  1  0  0  0
  4 39  1  0  0  0
  5 40  1  0  0  0
  5 41  1  0  0  0
  6  7  1  0  0  0
  6 42  1  0  0  0
  6 43  1  0  0  0
  7  8  1  0  0  0
  7 44  1  0  0  0
  7 45  1  0  0  0
  8  9  1  0  0  0
  9 10  2  0  0  0
  9 14  1  0  0  0
 10 11  1  0  0  0
 10 46  1  0  0  0
 11 12  2  0  0  0
 11 47  1  0  0  0
 12 13  1  0  0  0
 12 15  1  0  0  0
 13 14  2  0  0  0
 13 48  1  0  0  0
 14 49  1  0  0  0
 15 16  2  0  0  0
 15 26  1  0  0  0
 16 17  1  0  0  0
 16 23  1  0  0  0
 17 18  2  0  0  0
 17 22  1  0  0  0
 18 19  1  0  0  0
 18 50  1  0  0  0
 19 20  2  0  0  0
 19 51  1  0  0  0
 20 21  1  0  0  0
 20 52  1  0  0  0
 21 22  2  0  0  0
 21 53  1  0  0  0
 22 54  1  0  0  0
 23 24  2  0  0  0
 23 25  1  0  0  0
 25 62  1  0  0  0
 26 27  2  0  0  0
 26 31  1  0  0  0
 27 28  1  0  0  0
 27 55  1  0  0  0
 28 29  2  0  0  0
 28 56  1  0  0  0
 29 30  1  0  0  0
 29 32  1  0  0  0
 30 31  2  0  0  0
 30 57  1  0  0  0
 31 58  1  0  0  0
 32 33  1  0  0  0
 33 59  1  0  0  0
 33 60  1  0  0  0
 33 61  1  0  0  0
M  END
>  <Name>
tox-564

>  <substance>
Pyrrolidine, 1-[2-[4-[1-(4-methoxyphenyl)-2-nitro-2- phenylethenyl]phenoxy]ethyl]-, (E )

>  <CASRN>
77413-87-7

>  <from_NCI>
0

>  <RBA>
11.000000

>  <method>
MCF-7 cytosol

>  <chemical_class>
Triphenylethylene

>  <set>
0

$$$$
tox-565
  Cerius2 12190218273D 1   1.00000                          
 Structure written by MMmdl.
 32 34  0  0  0  0  0  0  0  0999 V2000
   -1.1673   -1.6916   -1.5497 C   0  0  0  0  0  0
   -1.3093   -0.6866   -0.5954 C   0  0  0  0  0  0
    0.2104   -2.2840   -1.6496 C   0  0  0  0  0  0
   -2.2872   -2.1165   -2.3355 C   0  0  0  0  0  0
   -0.2748   -0.2229    0.1674 O   0  0  0  0  0  0
   -2.5530   -0.0893   -0.3495 C   0  0  0  0  0  0
    1.3988   -1.4725   -1.0929 C   0  0  0  0  0  0
    0.4025   -3.3984   -2.1445 O   0  0  0  0  0  0
   -3.5119   -1.4514   -2.0248 C   0  0  0  0  0  0
   -2.2714   -2.9975   -3.2626 O   0  0  0  0  0  0
    1.0207   -0.5166   -0.2038 C   0  0  0  0  0  0
   -3.7099   -0.4444   -1.0493 C   0  0  0  0  0  0
    2.5493   -1.8160   -1.5128 O   0  0  0  0  0  0
    1.9834    0.3536    0.5209 C   0  0  0  0  0  0
   -4.8414    0.0938   -0.8323 O   0  0  0  0  0  0
    1.9796    1.7450    0.3178 C   0  0  0  0  0  0
    2.8656   -0.1588    1.4586 C   0  0  0  0  0  0
    2.8342    2.6662    0.9966 C   0  0  0  0  0  0
    3.7223    0.7066    2.1493 C   0  0  0  0  0  0
    3.7534    2.1163    1.9613 C   0  0  0  0  0  0
    2.7453    3.9143    0.7239 O   0  0  0  0  0  0
    4.5783    2.8168    2.6452 O   0  0  0  0  0  0
   -2.6036    0.6860    0.4194 H   0  0  0  0  0  0
   -4.3975   -1.7521   -2.6050 H   0  0  0  0  0  0
    1.2688    2.1415   -0.4153 H   0  0  0  0  0  0
    2.9005   -1.2261    1.6669 H   0  0  0  0  0  0
    4.4023    0.2508    2.8766 H   0  0  0  0  0  0
   -3.0527   -3.0819   -3.5866 H   0  0  0  0  0  0
    3.1406   -1.3196   -1.1571 H   0  0  0  0  0  0
   -5.4219   -0.2484   -1.3504 H   0  0  0  0  0  0
    3.3052    4.3477    1.1942 H   0  0  0  0  0  0
    5.0288    2.3068    3.1546 H   0  0  0  0  0  0
  1  2  2  0  0  0
  1  3  1  0  0  0
  1  4  1  0  0  0
  2  5  1  0  0  0
  2  6  1  0  0  0
  3  7  1  0  0  0
  3  8  2  0  0  0
  4  9  2  0  0  0
  4 10  1  0  0  0
  5 11  1  0  0  0
  6 12  2  0  0  0
  6 23  1  0  0  0
  7 11  2  0  0  0
  7 13  1  0  0  0
  9 12  1  0  0  0
  9 24  1  0  0  0
 10 28  1  0  0  0
 11 14  1  0  0  0
 12 15  1  0  0  0
 13 29  1  0  0  0
 14 16  2  0  0  0
 14 17  1  0  0  0
 15 30  1  0  0  0
 16 18  1  0  0  0
 16 25  1  0  0  0
 17 19  2  0  0  0
 17 26  1  0  0  0
 18 20  2  0  0  0
 18 21  1  0  0  0
 19 20  1  0  0  0
 19 27  1  0  0  0
 20 22  1  0  0  0
 21 31  1  0  0  0
 22 32  1  0  0  0
M  END
>  <Name>
tox-565

>  <substance>
Quercetin

>  <CASRN>
117-39-5

>  <from_NCI>
1

>  <RBA>
0.002000

>  <method>
GST-hERadef,GST-mERadef,hERa,MCF-7 cytosol,RUC

>  <chemical_class>
Flavone

>  <set>
0

$$$$
tox-566
  Cerius2 12190218273D 1   1.00000                          
 Structure written by MMmdl.
 40 42  0  0  0  0  0  0  0  0999 V2000
   -1.8405    0.7405   -0.4734 N   0  0  0  0  0  0
   -0.4598    0.7707   -0.9845 C   0  0  0  0  0  0
    0.2522   -0.5436   -0.7799 C   0  0  0  0  0  0
   -0.3927   -1.7242   -0.6696 C   0  0  0  0  0  0
   -1.8754   -1.6887   -0.7950 C   0  0  0  0  0  0
   -2.6088   -2.8756   -0.9973 C   0  0  0  0  0  0
   -3.9982   -2.8571   -1.0999 C   0  0  0  0  0  0
   -4.6666   -1.6510   -1.0001 C   0  0  0  0  0  0
   -3.9670   -0.4615   -0.7994 C   0  0  0  0  0  0
   -2.5604   -0.4459   -0.6952 C   0  0  0  0  0  0
   -6.0268   -1.6657   -1.1073 O   0  0  0  0  0  0
    0.2847   -3.0524   -0.4475 C   0  0  0  0  0  0
    1.7212   -0.4379   -0.7215 C   0  0  0  0  0  0
    2.3612   -0.1417    0.4892 C   0  0  0  0  0  0
    3.7534   -0.0432    0.5421 C   0  0  0  0  0  0
    4.5021   -0.2417   -0.6130 C   0  0  0  0  0  0
    3.8824   -0.5379   -1.8230 C   0  0  0  0  0  0
    2.4894   -0.6365   -1.8768 C   0  0  0  0  0  0
    5.8589   -0.1375   -0.5216 O   0  0  0  0  0  0
   -2.5523    2.0167   -0.2771 C   0  0  0  0  0  0
   -1.6970    3.1152    0.3383 C   0  0  0  0  0  0
    0.1061    1.5528   -0.4690 H   0  0  0  0  0  0
   -0.4693    1.0233   -2.0525 H   0  0  0  0  0  0
   -2.1126   -3.8397   -1.0853 H   0  0  0  0  0  0
   -4.5453   -3.7834   -1.2580 H   0  0  0  0  0  0
   -4.5381    0.4604   -0.7426 H   0  0  0  0  0  0
   -6.3592   -0.7473   -1.0158 H   0  0  0  0  0  0
    0.2098   -3.6781   -1.3432 H   0  0  0  0  0  0
   -0.1727   -3.5821    0.3957 H   0  0  0  0  0  0
    1.3479   -2.9611   -0.2082 H   0  0  0  0  0  0
    1.7810    0.0115    1.3978 H   0  0  0  0  0  0
    4.2450    0.1867    1.4846 H   0  0  0  0  0  0
    4.4623   -0.6953   -2.7294 H   0  0  0  0  0  0
    2.0093   -0.8709   -2.8256 H   0  0  0  0  0  0
    6.2423   -0.3029   -1.4095 H   0  0  0  0  0  0
   -3.3894    1.8679    0.4154 H   0  0  0  0  0  0
   -2.9591    2.3641   -1.2342 H   0  0  0  0  0  0
   -2.3239    3.9726    0.6046 H   0  0  0  0  0  0
   -0.9393    3.4762   -0.3642 H   0  0  0  0  0  0
   -1.1940    2.7664    1.2461 H   0  0  0  0  0  0
  1  2  1  0  0  0
  1 10  1  0  0  0
  1 20  1  0  0  0
  2  3  1  0  0  0
  2 22  1  0  0  0
  2 23  1  0  0  0
  3  4  2  0  0  0
  3 13  1  0  0  0
  4  5  1  0  0  0
  4 12  1  0  0  0
  5  6  2  0  0  0
  5 10  1  0  0  0
  6  7  1  0  0  0
  6 24  1  0  0  0
  7  8  2  0  0  0
  7 25  1  0  0  0
  8  9  1  0  0  0
  8 11  1  0  0  0
  9 10  2  0  0  0
  9 26  1  0  0  0
 11 27  1  0  0  0
 12 28  1  0  0  0
 12 29  1  0  0  0
 12 30  1  0  0  0
 13 14  2  0  0  0
 13 18  1  0  0  0
 14 15  1  0  0  0
 14 31  1  0  0  0
 15 16  2  0  0  0
 15 32  1  0  0  0
 16 17  1  0  0  0
 16 19  1  0  0  0
 17 18  2  0  0  0
 17 33  1  0  0  0
 18 34  1  0  0  0
 19 35  1  0  0  0
 20 21  1  0  0  0
 20 36  1  0  0  0
 20 37  1  0  0  0
 21 38  1  0  0  0
 21 39  1  0  0  0
 21 40  1  0  0  0
M  END
>  <Name>
tox-566

>  <substance>
7-Quinolinol, 1-ethyl-1,2-dihydro-3-(4 hydroxyphenyl)-4-methyl-

>  <CASRN>
107144-83-2

>  <from_NCI>
0

>  <RBA>
9.000000

>  <method>
MCF-7 cytosol

>  <chemical_class>


>  <set>
2

$$$$
tox-567
  Cerius2 12190218273D 1   1.00000                          
 Structure written by MMmdl.
 40 42  0  0  0  0  0  0  0  0999 V2000
   -0.4416    1.4679   -0.4706 N   0  0  0  0  0  0
    0.7706    0.8121   -0.9890 C   0  0  0  0  0  0
    0.7351   -0.6845   -0.8001 C   0  0  0  0  0  0
   -0.4109   -1.3892   -0.6907 C   0  0  0  0  0  0
   -1.6806   -0.6200   -0.8014 C   0  0  0  0  0  0
   -2.9086   -1.2820   -1.0014 C   0  0  0  0  0  0
   -4.0961   -0.5666   -1.0898 C   0  0  0  0  0  0
   -4.0948    0.8117   -0.9817 C   0  0  0  0  0  0
   -2.8839    1.4821   -0.7822 C   0  0  0  0  0  0
   -1.6550    0.7972   -0.6904 C   0  0  0  0  0  0
   -5.2526   -1.2613   -1.2866 O   0  0  0  0  0  0
   -0.4828   -2.8806   -0.4842 C   0  0  0  0  0  0
    2.0626   -1.3239   -0.7579 C   0  0  0  0  0  0
    2.7719   -1.4030    0.4478 C   0  0  0  0  0  0
    4.0293   -2.0099    0.4845 C   0  0  0  0  0  0
    4.5742   -2.5364   -0.6818 C   0  0  0  0  0  0
    3.8826   -2.4672   -1.8871 C   0  0  0  0  0  0
    2.6244   -1.8602   -1.9246 C   0  0  0  0  0  0
    5.8039   -3.1212   -0.6062 O   0  0  0  0  0  0
   -0.4268    2.9283   -0.2683 C   0  0  0  0  0  0
    0.8629    3.4554    0.3448 C   0  0  0  0  0  0
    1.6506    1.2037   -0.4693 H   0  0  0  0  0  0
    0.8874    1.0471   -2.0547 H   0  0  0  0  0  0
   -2.9575   -2.3636   -1.0975 H   0  0  0  0  0  0
   -5.0158    1.3857   -1.0513 H   0  0  0  0  0  0
   -2.9344    2.5666   -0.7179 H   0  0  0  0  0  0
   -5.9960   -0.6220   -1.3270 H   0  0  0  0  0  0
   -0.8656   -3.3764   -1.3826 H   0  0  0  0  0  0
   -1.1372   -3.1214    0.3610 H   0  0  0  0  0  0
    0.4865   -3.3329   -0.2566 H   0  0  0  0  0  0
    2.3497   -0.9956    1.3650 H   0  0  0  0  0  0
    4.5755   -2.0686    1.4231 H   0  0  0  0  0  0
    4.3027   -2.8778   -2.8022 H   0  0  0  0  0  0
    2.0862   -1.8105   -2.8699 H   0  0  0  0  0  0
    6.0502   -3.4401   -1.5008 H   0  0  0  0  0  0
   -1.2249    3.2115    0.4282 H   0  0  0  0  0  0
   -0.6110    3.4357   -1.2226 H   0  0  0  0  0  0
    0.7454    4.5104    0.6143 H   0  0  0  0  0  0
    1.6980    3.3941   -0.3600 H   0  0  0  0  0  0
    1.1286    2.9006    1.2505 H   0  0  0  0  0  0
  1  2  1  0  0  0
  1 10  1  0  0  0
  1 20  1  0  0  0
  2  3  1  0  0  0
  2 22  1  0  0  0
  2 23  1  0  0  0
  3  4  2  0  0  0
  3 13  1  0  0  0
  4  5  1  0  0  0
  4 12  1  0  0  0
  5  6  2  0  0  0
  5 10  1  0  0  0
  6  7  1  0  0  0
  6 24  1  0  0  0
  7  8  2  0  0  0
  7 11  1  0  0  0
  8  9  1  0  0  0
  8 25  1  0  0  0
  9 10  2  0  0  0
  9 26  1  0  0  0
 11 27  1  0  0  0
 12 28  1  0  0  0
 12 29  1  0  0  0
 12 30  1  0  0  0
 13 14  2  0  0  0
 13 18  1  0  0  0
 14 15  1  0  0  0
 14 31  1  0  0  0
 15 16  2  0  0  0
 15 32  1  0  0  0
 16 17  1  0  0  0
 16 19  1  0  0  0
 17 18  2  0  0  0
 17 33  1  0  0  0
 18 34  1  0  0  0
 19 35  1  0  0  0
 20 21  1  0  0  0
 20 36  1  0  0  0
 20 37  1  0  0  0
 21 38  1  0  0  0
 21 39  1  0  0  0
 21 40  1  0  0  0
M  END
>  <Name>
tox-567

>  <substance>
6-Quinolinol, 1-ethyl-1,2-dihydro-3-(4 hydroxyphenyl)-4-methyl-

>  <CASRN>
107144-82-1

>  <from_NCI>
0

>  <RBA>
33.000000

>  <method>
MCF-7 cytosol

>  <chemical_class>


>  <set>
0

$$$$
tox-568
  Cerius2 12190218273D 1   1.00000                          
 Structure written by MMmdl.
 61 65  0  0  0  0  0  0  0  0999 V2000
    1.9221    1.8259    1.7517 C   0  0  0  0  0  0
    3.1349    2.0183    1.1050 C   0  0  0  0  0  0
    1.0134    2.9402    1.5400 C   0  0  0  0  0  0
    1.6457    0.6497    2.5794 C   0  0  0  0  0  0
    4.3200    1.1551    1.0556 C   0  0  0  0  0  0
    3.1528    3.4747    0.2093 S   0  0  0  0  0  0
    1.5662    3.9046    0.7022 C   0  0  0  0  0  0
   -0.2855    3.1985    2.0358 C   0  0  0  0  0  0
    0.4354   -0.1736    2.2786 C   0  0  0  0  0  0
    2.3776    0.3317    3.5171 O   0  0  0  0  0  0
    4.2620   -0.1074    0.4665 C   0  0  0  0  0  0
    5.5366    1.5700    1.5978 C   0  0  0  0  0  0
    0.8531    5.0769    0.3435 C   0  0  0  0  0  0
   -0.9753    4.3703    1.6692 C   0  0  0  0  0  0
   -0.1382   -0.2127    1.0015 C   0  0  0  0  0  0
   -0.1312   -0.9405    3.3039 C   0  0  0  0  0  0
    5.4047   -0.9269    0.4221 C   0  0  0  0  0  0
    6.6665    0.7348    1.5423 C   0  0  0  0  0  0
   -0.4466    5.3473    0.8157 C   0  0  0  0  0  0
   -1.2887   -0.9755    0.7637 C   0  0  0  0  0  0
   -1.2770   -1.7040    3.0598 C   0  0  0  0  0  0
    6.6515   -0.5439    0.9536 C   0  0  0  0  0  0
   -1.0859    6.3986    0.4947 O   0  0  0  0  0  0
   -1.8702   -1.7118    1.7959 C   0  0  0  0  0  0
    7.6793   -1.2908    0.9043 O   0  0  0  0  0  0
   -2.9951   -2.4827    1.6895 O   0  0  0  0  0  0
   -3.8033   -2.2708    0.5222 C   0  0  0  0  0  0
   -5.1224   -3.0430    0.7008 C   0  0  0  0  0  0
   -6.1597   -2.7121   -0.2977 N   0  0  0  0  0  0
   -5.7971   -3.0835   -1.6773 C   0  0  0  0  0  0
   -7.4618   -3.3045    0.0649 C   0  0  0  0  0  0
   -5.8045   -4.5901   -1.9430 C   0  0  0  0  0  0
   -7.5407   -4.8197   -0.1419 C   0  0  0  0  0  0
   -7.1462   -5.2080   -1.5628 C   0  0  0  0  0  0
   -0.7753    2.4972    2.7096 H   0  0  0  0  0  0
    3.3371   -0.4736    0.0241 H   0  0  0  0  0  0
    5.6277    2.5446    2.0752 H   0  0  0  0  0  0
    1.3398    5.7931   -0.3233 H   0  0  0  0  0  0
   -1.9786    4.5055    2.0859 H   0  0  0  0  0  0
    0.2939    0.3399    0.1697 H   0  0  0  0  0  0
    0.3034   -0.9407    4.3017 H   0  0  0  0  0  0
    5.3005   -1.9058   -0.0550 H   0  0  0  0  0  0
    7.5922    1.1155    1.9836 H   0  0  0  0  0  0
   -1.6988   -0.9737   -0.2427 H   0  0  0  0  0  0
   -1.7130   -2.2853    3.8707 H   0  0  0  0  0  0
   -3.2681   -2.6432   -0.3580 H   0  0  0  0  0  0
   -4.0234   -1.2016    0.4102 H   0  0  0  0  0  0
   -5.5042   -2.7922    1.6996 H   0  0  0  0  0  0
   -4.9041   -4.1170    0.7352 H   0  0  0  0  0  0
   -4.8256   -2.6612   -1.9552 H   0  0  0  0  0  0
   -6.5151   -2.6038   -2.3562 H   0  0  0  0  0  0
   -8.2384   -2.8226   -0.5431 H   0  0  0  0  0  0
   -7.7145   -3.0588    1.1037 H   0  0  0  0  0  0
   -4.9995   -5.0784   -1.3815 H   0  0  0  0  0  0
   -5.6057   -4.7766   -3.0047 H   0  0  0  0  0  0
   -8.5615   -5.1639    0.0612 H   0  0  0  0  0  0
   -6.8885   -5.3334    0.5742 H   0  0  0  0  0  0
   -7.0983   -6.2984   -1.6560 H   0  0  0  0  0  0
   -7.9172   -4.8591   -2.2614 H   0  0  0  0  0  0
   -1.8481    6.3926    0.8708 H   0  0  0  0  0  0
    8.3351   -0.8951    1.2730 H   0  0  0  0  0  0
  1  2  2  0  0  0
  1  3  1  0  0  0
  1  4  1  0  0  0
  2  5  1  0  0  0
  2  6  1  0  0  0
  3  7  2  0  0  0
  3  8  1  0  0  0
  4  9  1  0  0  0
  4 10  2  0  0  0
  5 11  2  0  0  0
  5 12  1  0  0  0
  6  7  1  0  0  0
  7 13  1  0  0  0
  8 14  2  0  0  0
  8 35  1  0  0  0
  9 15  2  0  0  0
  9 16  1  0  0  0
 11 17  1  0  0  0
 11 36  1  0  0  0
 12 18  2  0  0  0
 12 37  1  0  0  0
 13 19  2  0  0  0
 13 38  1  0  0  0
 14 19  1  0  0  0
 14 39  1  0  0  0
 15 20  1  0  0  0
 15 40  1  0  0  0
 16 21  2  0  0  0
 16 41  1  0  0  0
 17 22  2  0  0  0
 17 42  1  0  0  0
 18 22  1  0  0  0
 18 43  1  0  0  0
 19 23  1  0  0  0
 20 24  2  0  0  0
 20 44  1  0  0  0
 21 24  1  0  0  0
 21 45  1  0  0  0
 22 25  1  0  0  0
 23 60  1  0  0  0
 24 26  1  0  0  0
 25 61  1  0  0  0
 26 27  1  0  0  0
 27 28  1  0  0  0
 27 46  1  0  0  0
 27 47  1  0  0  0
 28 29  1  0  0  0
 28 48  1  0  0  0
 28 49  1  0  0  0
 29 30  1  0  0  0
 29 31  1  0  0  0
 30 32  1  0  0  0
 30 50  1  0  0  0
 30 51  1  0  0  0
 31 33  1  0  0  0
 31 52  1  0  0  0
 31 53  1  0  0  0
 32 34  1  0  0  0
 32 54  1  0  0  0
 32 55  1  0  0  0
 33 34  1  0  0  0
 33 56  1  0  0  0
 33 57  1  0  0  0
 34 58  1  0  0  0
 34 59  1  0  0  0
M  END
>  <Name>
tox-568

>  <substance>
Raloxifene

>  <CASRN>
84449-90-1

>  <from_NCI>
1

>  <RBA>
60.000000

>  <method>
hERa,hERa

>  <chemical_class>
Stilbene; Piperidine; Phenol

>  <set>
2

$$$$
tox-570
  Cerius2 12190218273D 1   1.00000                          
 Structure written by MMmdl.
 29 30  0  0  0  0  0  0  0  0999 V2000
   -0.6324   -0.3826    0.0019 C   0  0  0  0  0  0
    0.6018    0.1531    0.0000 C   0  0  0  0  0  0
   -1.9171    0.3569    0.0063 C   0  0  0  0  0  0
   -4.3919    1.6108    0.0139 C   0  0  0  0  0  0
   -3.2464    2.4453    0.0173 C   0  0  0  0  0  0
   -4.3913    0.1945    0.0072 C   0  0  0  0  0  0
    1.8780   -0.5930   -0.0052 C   0  0  0  0  0  0
   -3.1113   -0.3888    0.0036 C   0  0  0  0  0  0
   -2.0169    1.7582    0.0133 C   0  0  0  0  0  0
    4.4558   -1.9242   -0.0162 C   0  0  0  0  0  0
   -5.4616   -0.4938    0.0046 O   0  0  0  0  0  0
   -3.3239    3.7157    0.0234 O   0  0  0  0  0  0
    3.0742    0.1289   -0.0076 C   0  0  0  0  0  0
    1.9773   -1.9841   -0.0081 C   0  0  0  0  0  0
    3.2344   -2.6215   -0.0135 C   0  0  0  0  0  0
    4.3212   -0.5251   -0.0130 C   0  0  0  0  0  0
    5.5845   -2.5091   -0.0211 O   0  0  0  0  0  0
   -0.7485   -1.4644   -0.0004 H   0  0  0  0  0  0
    0.7232    1.2341    0.0020 H   0  0  0  0  0  0
   -5.3717    2.1090    0.0169 H   0  0  0  0  0  0
   -3.0415   -1.4808   -0.0017 H   0  0  0  0  0  0
   -1.1037    2.3557    0.0159 H   0  0  0  0  0  0
    3.0662    1.2188   -0.0054 H   0  0  0  0  0  0
    1.0933   -2.6175   -0.0064 H   0  0  0  0  0  0
    3.2383   -3.7157   -0.0157 H   0  0  0  0  0  0
    5.2160    0.1043   -0.0147 H   0  0  0  0  0  0
   -5.2664   -1.3211    0.0006 H   0  0  0  0  0  0
   -2.5413    4.0473    0.0246 H   0  0  0  0  0  0
    6.2048   -1.9279   -0.0220 H   0  0  0  0  0  0
  1  2  2  0  0  0
  1  3  1  0  0  0
  1 18  1  0  0  0
  2  7  1  0  0  0
  2 19  1  0  0  0
  3  8  2  0  0  0
  3  9  1  0  0  0
  4  5  1  0  0  0
  4  6  2  0  0  0
  4 20  1  0  0  0
  5  9  2  0  0  0
  5 12  1  0  0  0
  6  8  1  0  0  0
  6 11  1  0  0  0
  7 13  2  0  0  0
  7 14  1  0  0  0
  8 21  1  0  0  0
  9 22  1  0  0  0
 10 15  1  0  0  0
 10 16  2  0  0  0
 10 17  1  0  0  0
 11 27  1  0  0  0
 12 28  1  0  0  0
 13 16  1  0  0  0
 13 23  1  0  0  0
 14 15  2  0  0  0
 14 24  1  0  0  0
 15 25  1  0  0  0
 16 26  1  0  0  0
 17 29  1  0  0  0
M  END
>  <Name>
tox-570

>  <substance>
Resveratrol

>  <CASRN>
501-36-0

>  <from_NCI>
1

>  <RBA>
300.000000

>  <method>
RUC

>  <chemical_class>
Stilbene

>  <set>
2

$$$$
tox-571
  Cerius2 12190218273D 1   1.00000                          
 Structure written by MMmdl.
 73 77  0  0  0  0  0  0  0  0999 V2000
   -0.2272    0.1602   -2.8721 C   0  0  0  0  0  0
    0.8288   -0.6588   -3.0830 C   0  0  0  0  0  0
   -1.6526   -0.2042   -2.8257 C   0  0  0  0  0  0
   -0.1114    1.5260   -2.6684 O   0  0  0  0  0  0
    2.1881   -0.0050   -3.1159 C   0  0  0  0  0  0
    0.9006   -2.0191   -3.2579 O   0  0  0  0  0  0
   -2.3150   -0.4076   -1.6054 C   0  0  0  0  0  0
   -2.4043   -0.2263   -3.9894 C   0  0  0  0  0  0
    1.0656    2.1588   -2.9573 C   0  0  0  0  0  0
    2.2590    1.4882   -3.2206 C   0  0  0  0  0  0
    3.1907   -0.7194   -3.0590 O   0  0  0  0  0  0
   -0.1861   -2.9419   -3.2061 C   0  0  0  0  0  0
   -3.7157   -0.6600   -1.4814 C   0  0  0  0  0  0
   -3.7781   -0.4792   -3.9165 C   0  0  0  0  0  0
    1.0006    3.5585   -2.9733 C   0  0  0  0  0  0
    3.4463    2.2154   -3.5527 C   0  0  0  0  0  0
   -0.5903   -3.2807   -1.8848 O   0  0  0  0  0  0
    0.2258   -4.2479   -4.0259 C   0  0  0  0  0  0
   -4.4846   -0.7026   -2.7019 C   0  0  0  0  0  0
   -4.2174   -0.8269   -0.3147 O   0  0  0  0  0  0
    2.1068    4.3601   -3.2684 C   0  0  0  0  0  0
    3.2891    3.6346   -3.5514 C   0  0  0  0  0  0
    4.5839    1.7133   -3.8512 O   0  0  0  0  0  0
    0.4299   -3.8180   -1.0301 C   0  0  0  0  0  0
    0.7216   -5.4336   -3.0692 C   0  0  0  0  0  0
   -0.8408   -4.6965   -4.7054 O   0  0  0  0  0  0
   -5.7456   -0.9203   -2.7479 O   0  0  0  0  0  0
    2.0547    5.6308   -3.2876 O   0  0  0  0  0  0
    1.1351   -2.6506   -0.2842 C   0  0  0  0  0  0
    1.4212   -4.8252   -1.7680 C   0  0  0  0  0  0
    1.6215   -6.1402   -3.7690 O   0  0  0  0  0  0
    1.6353   -3.0666    0.9964 O   0  0  0  0  0  0
    1.6937   -5.8221   -0.9173 O   0  0  0  0  0  0
    2.0949   -1.9454    1.7794 C   0  0  0  0  0  0
    2.4558   -2.4344    3.2342 C   0  0  0  0  0  0
    3.2706   -1.4373    1.1488 O   0  0  0  0  0  0
    3.0489   -1.2297    4.1179 C   0  0  0  0  0  0
    1.4253   -3.0250    3.8538 O   0  0  0  0  0  0
    3.8063   -0.2491    1.7417 C   0  0  0  0  0  0
    4.1416   -0.4002    3.2861 C   0  0  0  0  0  0
    2.1134   -0.3538    4.4946 O   0  0  0  0  0  0
    2.9245    0.9627    1.3966 C   0  0  0  0  0  0
    5.3015   -1.0564    3.3972 O   0  0  0  0  0  0
   -1.7157   -0.3557   -0.6910 H   0  0  0  0  0  0
   -1.9463   -0.0426   -4.9592 H   0  0  0  0  0  0
   -1.0419   -2.4957   -3.7157 H   0  0  0  0  0  0
   -4.3287   -0.4933   -4.8626 H   0  0  0  0  0  0
    0.0389    4.0278   -2.7501 H   0  0  0  0  0  0
    1.0982   -3.9192   -4.6182 H   0  0  0  0  0  0
    4.1813    4.2295   -3.7982 H   0  0  0  0  0  0
   -0.1386   -4.3693   -0.2666 H   0  0  0  0  0  0
   -0.1846   -5.9453   -2.6943 H   0  0  0  0  0  0
    0.4156   -1.8362   -0.1379 H   0  0  0  0  0  0
    1.9680   -2.2651   -0.8795 H   0  0  0  0  0  0
    2.2480   -4.1982   -2.1411 H   0  0  0  0  0  0
    1.2982   -1.1915    1.8057 H   0  0  0  0  0  0
    3.3382   -3.0753    3.0614 H   0  0  0  0  0  0
    3.5843   -1.7397    4.9411 H   0  0  0  0  0  0
    4.7461   -0.0646    1.2003 H   0  0  0  0  0  0
    4.1457    0.6331    3.6751 H   0  0  0  0  0  0
    3.4157    1.8961    1.6887 H   0  0  0  0  0  0
    1.9523    0.9218    1.8945 H   0  0  0  0  0  0
    2.7270    0.9937    0.3194 H   0  0  0  0  0  0
   -5.0529   -0.9677   -0.3830 H   0  0  0  0  0  0
    5.1367    2.3390   -4.0106 H   0  0  0  0  0  0
   -0.6255   -5.3923   -5.1435 H   0  0  0  0  0  0
   -6.0065   -0.9049   -3.5567 H   0  0  0  0  0  0
    2.8202    5.9428   -3.4857 H   0  0  0  0  0  0
    1.9099   -6.7824   -3.2927 H   0  0  0  0  0  0
    2.2224   -6.3747   -1.2883 H   0  0  0  0  0  0
    1.6654   -3.2710    4.6312 H   0  0  0  0  0  0
    2.4721    0.2624    4.9574 H   0  0  0  0  0  0
    5.9045   -0.6410    2.9656 H   0  0  0  0  0  0
  1  2  2  0  0  0
  1  3  1  0  0  0
  1  4  1  0  0  0
  2  5  1  0  0  0
  2  6  1  0  0  0
  3  7  2  0  0  0
  3  8  1  0  0  0
  4  9  1  0  0  0
  5 10  1  0  0  0
  5 11  2  0  0  0
  6 12  1  0  0  0
  7 13  1  0  0  0
  7 44  1  0  0  0
  8 14  2  0  0  0
  8 45  1  0  0  0
  9 10  2  0  0  0
  9 15  1  0  0  0
 10 16  1  0  0  0
 12 17  1  0  0  0
 12 18  1  0  0  0
 12 46  1  0  0  0
 13 19  2  0  0  0
 13 20  1  0  0  0
 14 19  1  0  0  0
 14 47  1  0  0  0
 15 21  2  0  0  0
 15 48  1  0  0  0
 16 22  2  0  0  0
 16 23  1  0  0  0
 17 24  1  0  0  0
 18 25  1  0  0  0
 18 26  1  0  0  0
 18 49  1  0  0  0
 19 27  1  0  0  0
 20 64  1  0  0  0
 21 22  1  0  0  0
 21 28  1  0  0  0
 22 50  1  0  0  0
 23 65  1  0  0  0
 24 29  1  0  0  0
 24 30  1  0  0  0
 24 51  1  0  0  0
 25 30  1  0  0  0
 25 31  1  0  0  0
 25 52  1  0  0  0
 26 66  1  0  0  0
 27 67  1  0  0  0
 28 68  1  0  0  0
 29 32  1  0  0  0
 29 53  1  0  0  0
 29 54  1  0  0  0
 30 33  1  0  0  0
 30 55  1  0  0  0
 31 69  1  0  0  0
 32 34  1  0  0  0
 33 70  1  0  0  0
 34 35  1  0  0  0
 34 36  1  0  0  0
 34 56  1  0  0  0
 35 37  1  0  0  0
 35 38  1  0  0  0
 35 57  1  0  0  0
 36 39  1  0  0  0
 37 40  1  0  0  0
 37 41  1  0  0  0
 37 58  1  0  0  0
 38 71  1  0  0  0
 39 40  1  0  0  0
 39 42  1  0  0  0
 39 59  1  0  0  0
 40 43  1  0  0  0
 40 60  1  0  0  0
 41 72  1  0  0  0
 42 61  1  0  0  0
 42 62  1  0  0  0
 42 63  1  0  0  0
 43 73  1  0  0  0
M  END
>  <Name>
tox-571

>  <substance>
Rutin

>  <CASRN>
153-18-4

>  <from_NCI>
1

>  <RBA>
0.000080

>  <method>
RUC

>  <chemical_class>
Flavone

>  <set>
1

$$$$
tox-572
  Cerius2 12190218273D 1   1.00000                          
 Structure written by MMmdl.
 25 25  0  0  0  0  0  0  0  0999 V2000
   -1.0533   -0.6161    0.3290 C   0  0  0  0  0  0
    0.0108   -1.3397   -0.0028 N   0  0  0  0  0  0
   -1.0651    0.7028    0.3571 N   0  0  0  0  0  0
   -2.1812   -1.3155    0.6534 N   0  0  0  0  0  0
    1.1196   -0.6804   -0.3224 C   0  0  0  0  0  0
    0.0943    1.2471    0.0203 C   0  0  0  0  0  0
   -3.4135   -0.6656    1.0352 C   0  0  0  0  0  0
    1.2164    0.6353   -0.3269 N   0  0  0  0  0  0
    2.2002   -1.4452   -0.6599 N   0  0  0  0  0  0
    0.1495    2.9555    0.0356 Cl  0  0  0  0  0  0
   -4.4783   -1.7075    1.3335 C   0  0  0  0  0  0
    3.4720   -0.8693   -1.0308 C   0  0  0  0  0  0
    4.4677   -1.9723   -1.3479 C   0  0  0  0  0  0
   -2.1148   -2.3263    0.6149 H   0  0  0  0  0  0
   -3.7661   -0.0145    0.2270 H   0  0  0  0  0  0
   -3.2568   -0.0482    1.9273 H   0  0  0  0  0  0
    2.0687   -2.4502   -0.6396 H   0  0  0  0  0  0
   -5.4156   -1.2230    1.6240 H   0  0  0  0  0  0
   -4.1654   -2.3662    2.1506 H   0  0  0  0  0  0
   -4.6732   -2.3324    0.4555 H   0  0  0  0  0  0
    3.8653   -0.2568   -0.2112 H   0  0  0  0  0  0
    3.3560   -0.2274   -1.9117 H   0  0  0  0  0  0
    5.4346   -1.5442   -1.6300 H   0  0  0  0  0  0
    4.1136   -2.5948   -2.1765 H   0  0  0  0  0  0
    4.6212   -2.6240   -0.4812 H   0  0  0  0  0  0
  1  2  2  0  0  0
  1  3  1  0  0  0
  1  4  1  0  0  0
  2  5  1  0  0  0
  3  6  2  0  0  0
  4  7  1  0  0  0
  4 14  1  0  0  0
  5  8  2  0  0  0
  5  9  1  0  0  0
  6  8  1  0  0  0
  6 10  1  0  0  0
  7 11  1  0  0  0
  7 15  1  0  0  0
  7 16  1  0  0  0
  9 12  1  0  0  0
  9 17  1  0  0  0
 11 18  1  0  0  0
 11 19  1  0  0  0
 11 20  1  0  0  0
 12 13  1  0  0  0
 12 21  1  0  0  0
 12 22  1  0  0  0
 13 23  1  0  0  0
 13 24  1  0  0  0
 13 25  1  0  0  0
M  END
>  <Name>
tox-572

>  <substance>
Simazine

>  <CASRN>
122-34-9

>  <from_NCI>
1

>  <RBA>
0.000000

>  <method>
GST-hERadef,GST-mERadef,hERa-FP,RUC

>  <chemical_class>
Organochlorine; Triazine

>  <set>
0

$$$$
tox-573
  Cerius2 12190218273D 1   1.00000                          
 Structure written by MMmdl.
 80 83  0  0  0  0  0  0  0  0999 V2000
   -1.6456   -2.3224   -2.4437 C   0  0  0  0  0  0
   -0.3766   -1.5217   -2.1253 C   0  0  0  0  0  0
   -2.8871   -1.3934   -2.3456 C   0  0  0  0  0  0
   -1.5613   -2.9436   -3.8470 C   0  0  0  0  0  0
   -0.3822   -0.8631   -0.7232 C   0  0  0  0  0  0
    0.9559   -2.2506   -2.1843 C   0  0  0  0  0  0
   -4.2304   -2.1834   -2.6232 C   0  0  0  0  0  0
   -2.8985   -0.5628   -1.0370 C   0  0  0  0  0  0
   -2.8798   -3.4155   -4.3754 C   0  0  0  0  0  0
    1.0454   -0.2294   -0.7296 C   0  0  0  0  0  0
   -1.5600    0.1291   -0.7241 C   0  0  0  0  0  0
    1.9105   -1.3313   -1.4134 C   0  0  0  0  0  0
   -4.0764   -3.1035   -3.8436 C   0  0  0  0  0  0
   -5.3566   -1.1459   -2.9033 C   0  0  0  0  0  0
    1.6804    0.2604    0.6068 C   0  0  0  0  0  0
   -5.3525   -3.6645   -4.4506 C   0  0  0  0  0  0
   -6.6548   -1.7471   -3.4618 C   0  0  0  0  0  0
    3.1001    0.8374    0.3455 C   0  0  0  0  0  0
    0.8086    1.3016    1.3156 C   0  0  0  0  0  0
   -6.3910   -2.5525   -4.7545 C   0  0  0  0  0  0
    3.8749    1.1945    1.6246 C   0  0  0  0  0  0
   -7.5315   -3.1178   -5.1250 O   0  0  0  0  0  0
    5.3902    1.4520    1.4006 C   0  0  0  0  0  0
    6.1067    1.8133    2.7440 C   0  0  0  0  0  0
    5.6512    2.4871    0.2777 C   0  0  0  0  0  0
    7.6066    2.0762    2.5552 C   0  0  0  0  0  0
    5.9425    0.7154    3.8050 C   0  0  0  0  0  0
    5.1274    3.8884    0.5604 C   0  0  0  0  0  0
   -4.6271   -3.0576   -1.4087 C   0  0  0  0  0  0
   -0.5303   -1.8774    0.4360 C   0  0  0  0  0  0
   -1.7440   -3.1429   -1.7240 H   0  0  0  0  0  0
   -0.3171   -0.7172   -2.8780 H   0  0  0  0  0  0
   -2.7766   -0.6564   -3.1580 H   0  0  0  0  0  0
   -0.8695   -3.7942   -3.8212 H   0  0  0  0  0  0
   -1.1508   -2.2225   -4.5647 H   0  0  0  0  0  0
    1.2970   -2.4054   -3.2130 H   0  0  0  0  0  0
    0.8987   -3.2340   -1.7042 H   0  0  0  0  0  0
   -3.1655   -1.1920   -0.1831 H   0  0  0  0  0  0
   -3.6711    0.2120   -1.0992 H   0  0  0  0  0  0
   -2.8274   -4.0576   -5.2542 H   0  0  0  0  0  0
    1.0238    0.6336   -1.4128 H   0  0  0  0  0  0
   -1.3879    0.9167   -1.4691 H   0  0  0  0  0  0
   -1.6593    0.6350    0.2395 H   0  0  0  0  0  0
    2.6345   -0.8732   -2.0969 H   0  0  0  0  0  0
    2.4746   -1.9228   -0.6832 H   0  0  0  0  0  0
   -4.9973   -0.3978   -3.6231 H   0  0  0  0  0  0
   -5.6041   -0.5963   -1.9871 H   0  0  0  0  0  0
    1.7917   -0.5995    1.2795 H   0  0  0  0  0  0
   -5.7638   -4.4132   -3.7584 H   0  0  0  0  0  0
   -5.1251   -4.2103   -5.3779 H   0  0  0  0  0  0
   -7.3560   -0.9251   -3.6645 H   0  0  0  0  0  0
   -7.1274   -2.3692   -2.6886 H   0  0  0  0  0  0
    3.0073    1.7234   -0.2938 H   0  0  0  0  0  0
    3.6974    0.1045   -0.2074 H   0  0  0  0  0  0
    1.2951    1.7027    2.2088 H   0  0  0  0  0  0
   -0.1266    0.8635    1.6685 H   0  0  0  0  0  0
    0.5745    2.1408    0.6526 H   0  0  0  0  0  0
   -5.8941   -1.8564   -5.4483 H   0  0  0  0  0  0
    3.7541    0.3589    2.3224 H   0  0  0  0  0  0
    3.4305    2.0746    2.1015 H   0  0  0  0  0  0
    5.8236    0.5047    1.0482 H   0  0  0  0  0  0
    5.6572    2.7268    3.1532 H   0  0  0  0  0  0
    5.2108    2.1319   -0.6612 H   0  0  0  0  0  0
    6.7255    2.5467    0.0698 H   0  0  0  0  0  0
    8.1013    2.2334    3.5201 H   0  0  0  0  0  0
    7.7862    2.9778    1.9625 H   0  0  0  0  0  0
    8.0967    1.2319    2.0589 H   0  0  0  0  0  0
    6.5369    0.9410    4.6974 H   0  0  0  0  0  0
    6.2664   -0.2579    3.4215 H   0  0  0  0  0  0
    4.9040    0.6291    4.1371 H   0  0  0  0  0  0
    5.3478    4.5447   -0.2880 H   0  0  0  0  0  0
    5.5992    4.3251    1.4449 H   0  0  0  0  0  0
    4.0437    3.8927    0.7073 H   0  0  0  0  0  0
   -5.4994   -3.6863   -1.6161 H   0  0  0  0  0  0
   -4.8943   -2.4468   -0.5403 H   0  0  0  0  0  0
   -3.8175   -3.7313   -1.1102 H   0  0  0  0  0  0
   -0.5987   -1.3640    1.4003 H   0  0  0  0  0  0
    0.3189   -2.5652    0.4984 H   0  0  0  0  0  0
   -1.4285   -2.4939    0.3468 H   0  0  0  0  0  0
   -8.1055   -2.5139   -5.2932 H   0  0  0  0  0  0
  1  2  1  0  0  0
  1  3  1  0  0  0
  1  4  1  0  0  0
  1 31  1  0  0  0
  2  5  1  0  0  0
  2  6  1  0  0  0
  2 32  1  0  0  0
  3  7  1  0  0  0
  3  8  1  0  0  0
  3 33  1  0  0  0
  4  9  1  0  0  0
  4 34  1  0  0  0
  4 35  1  0  0  0
  5 10  1  0  0  0
  5 11  1  0  0  0
  5 30  1  0  0  0
  6 12  1  0  0  0
  6 36  1  0  0  0
  6 37  1  0  0  0
  7 13  1  0  0  0
  7 14  1  0  0  0
  7 29  1  0  0  0
  8 11  1  0  0  0
  8 38  1  0  0  0
  8 39  1  0  0  0
  9 13  2  0  0  0
  9 40  1  0  0  0
 10 12  1  0  0  0
 10 15  1  0  0  0
 10 41  1  0  0  0
 11 42  1  0  0  0
 11 43  1  0  0  0
 12 44  1  0  0  0
 12 45  1  0  0  0
 13 16  1  0  0  0
 14 17  1  0  0  0
 14 46  1  0  0  0
 14 47  1  0  0  0
 15 18  1  0  0  0
 15 19  1  0  0  0
 15 48  1  0  0  0
 16 20  1  0  0  0
 16 49  1  0  0  0
 16 50  1  0  0  0
 17 20  1  0  0  0
 17 51  1  0  0  0
 17 52  1  0  0  0
 18 21  1  0  0  0
 18 53  1  0  0  0
 18 54  1  0  0  0
 19 55  1  0  0  0
 19 56  1  0  0  0
 19 57  1  0  0  0
 20 22  1  0  0  0
 20 58  1  0  0  0
 21 23  1  0  0  0
 21 59  1  0  0  0
 21 60  1  0  0  0
 22 80  1  0  0  0
 23 24  1  0  0  0
 23 25  1  0  0  0
 23 61  1  0  0  0
 24 26  1  0  0  0
 24 27  1  0  0  0
 24 62  1  0  0  0
 25 28  1  0  0  0
 25 63  1  0  0  0
 25 64  1  0  0  0
 26 65  1  0  0  0
 26 66  1  0  0  0
 26 67  1  0  0  0
 27 68  1  0  0  0
 27 69  1  0  0  0
 27 70  1  0  0  0
 28 71  1  0  0  0
 28 72  1  0  0  0
 28 73  1  0  0  0
 29 74  1  0  0  0
 29 75  1  0  0  0
 29 76  1  0  0  0
 30 77  1  0  0  0
 30 78  1  0  0  0
 30 79  1  0  0  0
M  END
>  <Name>
tox-573

>  <substance>
b-Sitosterol

>  <CASRN>
83-46-5

>  <from_NCI>
1

>  <RBA>
0.000000

>  <method>
GST-hERadef,GST-mERadef,hERa,RUC

>  <chemical_class>
Steroid, nonphenolic

>  <set>
0

$$$$
tox-574
  Cerius2 12190218273D 1   1.00000                          
 Structure written by MMmdl.
 28 29  0  0  0  0  0  0  0  0999 V2000
    4.8328   -3.6531   -0.0343 O   0  0  0  0  0  0
    3.7685   -2.9604    0.0255 C   0  0  0  0  0  0
    3.7765   -1.5568    0.1281 C   0  0  0  0  0  0
    2.6039   -0.7800    0.1937 C   0  0  0  0  0  0
    1.3471   -1.3818    0.1488 C   0  0  0  0  0  0
    1.3004   -2.7733    0.0646 C   0  0  0  0  0  0
    2.4835   -3.5327   -0.0005 C   0  0  0  0  0  0
    0.0863   -0.6276    0.2448 C   0  0  0  0  0  0
   -0.0866    0.6281   -0.2024 C   0  0  0  0  0  0
   -1.3474    1.3821   -0.1065 C   0  0  0  0  0  0
   -1.3008    2.7734   -0.0197 C   0  0  0  0  0  0
   -2.4840    3.5327    0.0452 C   0  0  0  0  0  0
   -3.7690    2.9604    0.0164 C   0  0  0  0  0  0
   -4.8334    3.6530    0.0758 O   0  0  0  0  0  0
   -3.7768    1.5570   -0.0887 C   0  0  0  0  0  0
   -2.6041    0.7804   -0.1541 C   0  0  0  0  0  0
    4.7312   -1.0238    0.1646 H   0  0  0  0  0  0
    2.7064    0.2993    0.2909 H   0  0  0  0  0  0
    0.3447   -3.2961    0.0408 H   0  0  0  0  0  0
    2.3771   -4.6191   -0.0731 H   0  0  0  0  0  0
   -0.7365   -1.1669    0.7112 H   0  0  0  0  0  0
    0.7361    1.1676   -0.6690 H   0  0  0  0  0  0
   -0.3452    3.2962    0.0063 H   0  0  0  0  0  0
   -2.3778    4.6189    0.1198 H   0  0  0  0  0  0
   -4.7315    1.0240   -0.1275 H   0  0  0  0  0  0
   -2.7064   -0.2988   -0.2534 H   0  0  0  0  0  0
    4.6318   -4.4769   -0.0928 H   0  0  0  0  0  0
   -5.5088    3.1378    0.0454 H   0  0  0  0  0  0
  1  2  1  0  0  0
  1 27  1  0  0  0
  2  3  2  0  0  0
  2  7  1  0  0  0
  3  4  1  0  0  0
  3 17  1  0  0  0
  4  5  2  0  0  0
  4 18  1  0  0  0
  5  6  1  0  0  0
  5  8  1  0  0  0
  6  7  2  0  0  0
  6 19  1  0  0  0
  7 20  1  0  0  0
  8  9  2  0  0  0
  8 21  1  0  0  0
  9 10  1  0  0  0
  9 22  1  0  0  0
 10 11  2  0  0  0
 10 16  1  0  0  0
 11 12  1  0  0  0
 11 23  1  0  0  0
 12 13  2  0  0  0
 12 24  1  0  0  0
 13 14  1  0  0  0
 13 15  1  0  0  0
 14 28  1  0  0  0
 15 16  2  0  0  0
 15 25  1  0  0  0
 16 26  1  0  0  0
M  END
>  <Name>
tox-574

>  <substance>
4,4'-Stilbenediol

>  <CASRN>
659-22-3

>  <from_NCI>
1

>  <RBA>
0.300000

>  <method>
RUC

>  <chemical_class>
Stilbene; Bisphenol

>  <set>
1

$$$$
tox-575
  Cerius2 12190218273D 1   1.00000                          
 Structure written by MMmdl.
 27 28  0  0  0  0  0  0  0  0999 V2000
   -0.2488   -0.5040    0.2260 C   0  0  0  0  0  0
    0.5125    0.5086   -0.2227 C   0  0  0  0  0  0
    1.9788    0.5646   -0.1006 C   0  0  0  0  0  0
    2.5968    1.8180    0.0135 C   0  0  0  0  0  0
    2.7878   -0.5789   -0.1495 C   0  0  0  0  0  0
    4.1792   -0.4728   -0.0589 C   0  0  0  0  0  0
    3.9876    1.9241    0.1043 C   0  0  0  0  0  0
    4.7782    0.7781    0.0707 C   0  0  0  0  0  0
   -1.7146   -0.5616    0.1052 C   0  0  0  0  0  0
   -4.5936   -0.7853   -0.0649 C   0  0  0  0  0  0
   -2.5288    0.5697    0.1319 C   0  0  0  0  0  0
   -2.3395   -1.8052    0.0156 C   0  0  0  0  0  0
   -3.9290    0.4505    0.0438 C   0  0  0  0  0  0
   -3.7405   -1.9041   -0.0724 C   0  0  0  0  0  0
   -5.8586   -0.8827   -0.1451 O   0  0  0  0  0  0
    0.2061   -1.3653    0.7126 H   0  0  0  0  0  0
    0.0584    1.3705   -0.7090 H   0  0  0  0  0  0
    1.9992    2.7287    0.0399 H   0  0  0  0  0  0
    2.3504   -1.5686   -0.2693 H   0  0  0  0  0  0
    4.7950   -1.3699   -0.0952 H   0  0  0  0  0  0
    4.4523    2.9040    0.1993 H   0  0  0  0  0  0
    5.8615    0.8599    0.1401 H   0  0  0  0  0  0
   -2.1022    1.5661    0.2322 H   0  0  0  0  0  0
   -1.7514   -2.7224    0.0053 H   0  0  0  0  0  0
   -4.5115    1.3763    0.0670 H   0  0  0  0  0  0
   -4.1673   -2.9086   -0.1480 H   0  0  0  0  0  0
   -6.0765   -1.7022   -0.2040 H   0  0  0  0  0  0
  1  2  2  0  0  0
  1  9  1  0  0  0
  1 16  1  0  0  0
  2  3  1  0  0  0
  2 17  1  0  0  0
  3  4  2  0  0  0
  3  5  1  0  0  0
  4  7  1  0  0  0
  4 18  1  0  0  0
  5  6  2  0  0  0
  5 19  1  0  0  0
  6  8  1  0  0  0
  6 20  1  0  0  0
  7  8  2  0  0  0
  7 21  1  0  0  0
  8 22  1  0  0  0
  9 11  2  0  0  0
  9 12  1  0  0  0
 10 13  2  0  0  0
 10 14  1  0  0  0
 10 15  1  0  0  0
 11 13  1  0  0  0
 11 23  1  0  0  0
 12 14  2  0  0  0
 12 24  1  0  0  0
 13 25  1  0  0  0
 14 26  1  0  0  0
 15 27  1  0  0  0
M  END
>  <Name>
tox-575

>  <substance>
4-Stilbenol

>  <CASRN>
3839-46-1

>  <from_NCI>
1

>  <RBA>
0.000000

>  <method>
RUC

>  <chemical_class>
Stilbene; Phenol

>  <set>
0

$$$$
tox-576
  Cerius2 12190218273D 1   1.00000                          
 Structure written by MMmdl.
 26 25  0  0  0  0  0  0  0  0999 V2000
   -3.1319   -1.5275   -1.3629 C   0  0  0  0  0  0
   -1.7336   -2.1175   -1.2794 C   0  0  0  0  0  0
   -4.0761   -2.3676   -1.4260 O   0  0  0  0  0  0
   -3.2559   -0.2736   -1.3651 O   0  0  0  0  0  0
   -0.5883   -1.1108   -1.1809 C   0  0  0  0  0  0
    0.7668   -1.8180   -1.1035 C   0  0  0  0  0  0
    1.9588   -0.8565   -1.1167 C   0  0  0  0  0  0
    2.0473    0.0227    0.1329 C   0  0  0  0  0  0
    3.3132    0.8783    0.1198 C   0  0  0  0  0  0
    3.5086    1.7949    1.3164 C   0  0  0  0  0  0
    4.5499    2.5134    1.2897 O   0  0  0  0  0  0
    2.6443    1.7787    2.2331 O   0  0  0  0  0  0
   -1.5896   -2.7453   -2.1677 H   0  0  0  0  0  0
   -1.7075   -2.7817   -0.4064 H   0  0  0  0  0  0
   -0.7378   -0.4832   -0.2952 H   0  0  0  0  0  0
   -0.6079   -0.4453   -2.0525 H   0  0  0  0  0  0
    0.8659   -2.4944   -1.9617 H   0  0  0  0  0  0
    0.8083   -2.4430   -0.2031 H   0  0  0  0  0  0
    1.9122   -0.2250   -2.0122 H   0  0  0  0  0  0
    2.8760   -1.4530   -1.1989 H   0  0  0  0  0  0
    2.0396   -0.6087    1.0297 H   0  0  0  0  0  0
    1.1718    0.6788    0.1957 H   0  0  0  0  0  0
    3.3164    1.5058   -0.7803 H   0  0  0  0  0  0
    4.1925    0.2246    0.0611 H   0  0  0  0  0  0
   -4.8187   -1.9564   -1.4698 H   0  0  0  0  0  0
    4.5817    2.9923    1.9912 H   0  0  0  0  0  0
  1  2  1  0  0  0
  1  3  1  0  0  0
  1  4  2  0  0  0
  2  5  1  0  0  0
  2 13  1  0  0  0
  2 14  1  0  0  0
  3 25  1  0  0  0
  5  6  1  0  0  0
  5 15  1  0  0  0
  5 16  1  0  0  0
  6  7  1  0  0  0
  6 17  1  0  0  0
  6 18  1  0  0  0
  7  8  1  0  0  0
  7 19  1  0  0  0
  7 20  1  0  0  0
  8  9  1  0  0  0
  8 21  1  0  0  0
  8 22  1  0  0  0
  9 10  1  0  0  0
  9 23  1  0  0  0
  9 24  1  0  0  0
 10 11  1  0  0  0
 10 12  2  0  0  0
 11 26  1  0  0  0
M  END
>  <Name>
tox-576

>  <substance>
Suberic acid

>  <CASRN>
505-48-6

>  <from_NCI>
1

>  <RBA>
0.000000

>  <method>
RUC

>  <chemical_class>
Carboxylic acid

>  <set>
2

$$$$
tox-577
  Cerius2 12190218273D 1   1.00000                          
 Structure written by MMmdl.
 57 59  0  0  0  0  0  0  0  0999 V2000
   -2.3039   -0.4352   -1.5879 C   0  0  0  0  0  0
   -3.4950    0.1770   -1.8343 C   0  0  0  0  0  0
   -1.0455    0.3517   -1.5028 C   0  0  0  0  0  0
   -2.2612   -1.9077   -1.4064 C   0  0  0  0  0  0
   -3.5936    1.6455   -2.0235 C   0  0  0  0  0  0
   -4.8296   -0.5372   -2.0004 C   0  0  0  0  0  0
   -0.3498    0.7095   -2.6626 C   0  0  0  0  0  0
   -0.5296    0.7282   -0.2570 C   0  0  0  0  0  0
   -2.5282   -2.4785   -0.1549 C   0  0  0  0  0  0
   -1.9416   -2.7417   -2.4863 C   0  0  0  0  0  0
   -3.6697    2.1877   -3.3133 C   0  0  0  0  0  0
   -3.6122    2.5065   -0.9179 C   0  0  0  0  0  0
   -5.7060   -0.4442   -0.7570 C   0  0  0  0  0  0
    0.8368    1.4426   -2.5730 C   0  0  0  0  0  0
    0.6588    1.4637   -0.1703 C   0  0  0  0  0  0
   -2.4849   -3.8643    0.0110 C   0  0  0  0  0  0
   -1.8991   -4.1272   -2.3176 C   0  0  0  0  0  0
   -3.7605    3.5696   -3.4933 C   0  0  0  0  0  0
   -3.7036    3.8880   -1.1002 C   0  0  0  0  0  0
    1.3462    1.8249   -1.3292 C   0  0  0  0  0  0
   -2.1715   -4.6874   -1.0700 C   0  0  0  0  0  0
   -3.7774    4.4185   -2.3873 C   0  0  0  0  0  0
    2.5116    2.5385   -1.3833 O   0  0  0  0  0  0
    3.0734    2.9644   -0.1333 C   0  0  0  0  0  0
    4.3583    3.7568   -0.4337 C   0  0  0  0  0  0
    4.9803    4.3939    0.7490 N   0  0  0  0  0  0
    6.0757    5.2728    0.3122 C   0  0  0  0  0  0
    5.5083    3.3904    1.6834 C   0  0  0  0  0  0
   -4.6898   -1.5945   -2.2494 H   0  0  0  0  0  0
   -5.3755   -0.1195   -2.8560 H   0  0  0  0  0  0
   -0.7275    0.4240   -3.6427 H   0  0  0  0  0  0
   -1.0529    0.4566    0.6584 H   0  0  0  0  0  0
   -2.7725   -1.8470    0.6975 H   0  0  0  0  0  0
   -1.7282   -2.3173   -3.4659 H   0  0  0  0  0  0
   -3.6529    1.5372   -4.1861 H   0  0  0  0  0  0
   -3.5555    2.1053    0.0925 H   0  0  0  0  0  0
   -6.6278   -1.0161   -0.9051 H   0  0  0  0  0  0
   -5.9895    0.5912   -0.5424 H   0  0  0  0  0  0
   -5.1964   -0.8484    0.1232 H   0  0  0  0  0  0
    1.3638    1.7157   -3.4855 H   0  0  0  0  0  0
    1.0139    1.7349    0.8201 H   0  0  0  0  0  0
   -2.6954   -4.3016    0.9853 H   0  0  0  0  0  0
   -1.6533   -4.7699   -3.1610 H   0  0  0  0  0  0
   -3.8165    3.9838   -4.4983 H   0  0  0  0  0  0
   -3.7162    4.5500   -0.2364 H   0  0  0  0  0  0
   -2.1380   -5.7677   -0.9395 H   0  0  0  0  0  0
   -3.8471    5.4956   -2.5288 H   0  0  0  0  0  0
    3.3084    2.0856    0.4771 H   0  0  0  0  0  0
    2.3619    3.6135    0.3915 H   0  0  0  0  0  0
    4.0901    4.5372   -1.1591 H   0  0  0  0  0  0
    5.0735    3.1050   -0.9538 H   0  0  0  0  0  0
    6.5260    5.7808    1.1723 H   0  0  0  0  0  0
    5.6962    6.0583   -0.3507 H   0  0  0  0  0  0
    6.8621    4.7218   -0.2165 H   0  0  0  0  0  0
    6.0000    3.8796    2.5321 H   0  0  0  0  0  0
    6.2326    2.7211    1.2055 H   0  0  0  0  0  0
    4.7009    2.7864    2.1089 H   0  0  0  0  0  0
  1  2  2  0  0  0
  1  3  1  0  0  0
  1  4  1  0  0  0
  2  5  1  0  0  0
  2  6  1  0  0  0
  3  7  2  0  0  0
  3  8  1  0  0  0
  4  9  2  0  0  0
  4 10  1  0  0  0
  5 11  2  0  0  0
  5 12  1  0  0  0
  6 13  1  0  0  0
  6 29  1  0  0  0
  6 30  1  0  0  0
  7 14  1  0  0  0
  7 31  1  0  0  0
  8 15  2  0  0  0
  8 32  1  0  0  0
  9 16  1  0  0  0
  9 33  1  0  0  0
 10 17  2  0  0  0
 10 34  1  0  0  0
 11 18  1  0  0  0
 11 35  1  0  0  0
 12 19  2  0  0  0
 12 36  1  0  0  0
 13 37  1  0  0  0
 13 38  1  0  0  0
 13 39  1  0  0  0
 14 20  2  0  0  0
 14 40  1  0  0  0
 15 20  1  0  0  0
 15 41  1  0  0  0
 16 21  2  0  0  0
 16 42  1  0  0  0
 17 21  1  0  0  0
 17 43  1  0  0  0
 18 22  2  0  0  0
 18 44  1  0  0  0
 19 22  1  0  0  0
 19 45  1  0  0  0
 20 23  1  0  0  0
 21 46  1  0  0  0
 22 47  1  0  0  0
 23 24  1  0  0  0
 24 25  1  0  0  0
 24 48  1  0  0  0
 24 49  1  0  0  0
 25 26  1  0  0  0
 25 50  1  0  0  0
 25 51  1  0  0  0
 26 27  1  0  0  0
 26 28  1  0  0  0
 27 52  1  0  0  0
 27 53  1  0  0  0
 27 54  1  0  0  0
 28 55  1  0  0  0
 28 56  1  0  0  0
 28 57  1  0  0  0
M  END
>  <Name>
tox-577

>  <substance>
Tamoxifen

>  <CASRN>
10540-29-1

>  <from_NCI>
1

>  <RBA>
4.300000

>  <method>
GST-hERadef,GST-mERadef,hERa,hERa,hERa,hERa-FP,hERa-FP,MCF-7 cytosol,MUC,RBC,RUC,RUC,RUC,RUC

>  <chemical_class>
Stilbene

>  <set>
0

$$$$
tox-579
  Cerius2 12190218273D 1   1.00000                          
 Structure written by MMmdl.
 34 36  0  0  0  0  0  0  0  0999 V2000
   -1.8972    1.9906   -0.0493 C   0  0  0  0  0  0
   -1.7334    0.6472    0.3299 C   0  0  0  0  0  0
   -0.6153    2.7743   -0.3112 C   0  0  0  0  0  0
   -3.2098    2.5585   -0.1411 C   0  0  0  0  0  0
   -0.5242    0.0039    0.4052 O   0  0  0  0  0  0
   -2.8322   -0.1474    0.6859 C   0  0  0  0  0  0
    0.7333    2.0387   -0.1657 C   0  0  0  0  0  0
   -0.6124    3.9731   -0.6121 O   0  0  0  0  0  0
   -4.2684    1.6672    0.2185 C   0  0  0  0  0  0
   -3.4976    3.7503   -0.5056 O   0  0  0  0  0  0
    0.4470    0.5403   -0.5105 C   0  0  0  0  0  0
   -4.1465    0.3233    0.6451 C   0  0  0  0  0  0
    1.1950    2.2404    1.0732 O   0  0  0  0  0  0
    1.6608   -0.3931   -0.5966 C   0  0  0  0  0  0
   -5.1479   -0.3957    0.9562 O   0  0  0  0  0  0
    2.7954   -0.0372   -1.3542 C   0  0  0  0  0  0
    1.6636   -1.6553   -0.0188 C   0  0  0  0  0  0
    3.9491   -0.8603   -1.5391 C   0  0  0  0  0  0
    2.7721   -2.4984   -0.1759 C   0  0  0  0  0  0
    3.9361   -2.1583   -0.9162 C   0  0  0  0  0  0
    4.9221   -0.4162   -2.2422 O   0  0  0  0  0  0
    4.8940   -3.0037   -0.9960 O   0  0  0  0  0  0
   -2.6390   -1.1789    0.9917 H   0  0  0  0  0  0
    1.3224    2.4165   -1.0165 H   0  0  0  0  0  0
   -5.2907    2.0713    0.1633 H   0  0  0  0  0  0
    0.0009    0.4900   -1.5173 H   0  0  0  0  0  0
    2.7898    0.9430   -1.8406 H   0  0  0  0  0  0
    0.8138   -2.0174    0.5576 H   0  0  0  0  0  0
    2.7158   -3.4811    0.3049 H   0  0  0  0  0  0
   -4.3404    3.8582   -0.4817 H   0  0  0  0  0  0
    1.9388    1.8399    1.1671 H   0  0  0  0  0  0
   -5.8608    0.0592    0.8707 H   0  0  0  0  0  0
    5.5394   -0.9998   -2.2723 H   0  0  0  0  0  0
    4.6902   -3.7048   -0.5607 H   0  0  0  0  0  0
  1  2  2  0  0  0
  1  3  1  0  0  0
  1  4  1  0  0  0
  2  5  1  0  0  0
  2  6  1  0  0  0
  3  7  1  0  0  0
  3  8  2  0  0  0
  4  9  2  0  0  0
  4 10  1  0  0  0
  5 11  1  0  0  0
  6 12  2  0  0  0
  6 23  1  0  0  0
  7 11  1  0  0  0
  7 13  1  0  0  0
  7 24  1  0  0  0
  9 12  1  0  0  0
  9 25  1  0  0  0
 10 30  1  0  0  0
 11 14  1  0  0  0
 11 26  1  0  0  0
 12 15  1  0  0  0
 13 31  1  0  0  0
 14 16  2  0  0  0
 14 17  1  0  0  0
 15 32  1  0  0  0
 16 18  1  0  0  0
 16 27  1  0  0  0
 17 19  2  0  0  0
 17 28  1  0  0  0
 18 20  2  0  0  0
 18 21  1  0  0  0
 19 20  1  0  0  0
 19 29  1  0  0  0
 20 22  1  0  0  0
 21 33  1  0  0  0
 22 34  1  0  0  0
M  END
>  <Name>
tox-579

>  <substance>
Taxifolin

>  <CASRN>
480-18-2

>  <from_NCI>
1

>  <RBA>
0.000000

>  <method>
RUC

>  <chemical_class>
Flavanone

>  <set>
1

$$$$
tox-580
  Cerius2 12190218273D 1   1.00000                          
 Structure written by MMmdl.
 49 52  0  0  0  0  0  0  0  0999 V2000
   -6.9467   -4.5004   11.7714 C   0  0  0  0  0  0
   -7.7140   -4.4896   13.1301 C   0  0  0  0  0  0
   -7.8476   -5.1226   10.6971 C   0  0  0  0  0  0
   -5.6313   -5.2770   11.9182 C   0  0  0  0  0  0
   -6.8541   -3.9013   14.3151 C   0  0  0  0  0  0
   -9.1212   -3.8477   12.9944 C   0  0  0  0  0  0
   -9.1815   -4.3552   10.4874 C   0  0  0  0  0  0
   -7.2998   -5.2872    9.2822 C   0  0  0  0  0  0
   -4.7527   -4.6724   13.0058 C   0  0  0  0  0  0
   -5.4733   -4.5730   14.3306 C   0  0  0  0  0  0
   -7.5990   -4.1905   15.6522 C   0  0  0  0  0  0
   -6.6463   -2.3763   14.1775 C   0  0  0  0  0  0
   -9.9479   -4.4131   11.8247 C   0  0  0  0  0  0
   -9.7919   -5.2386    9.3333 C   0  0  0  0  0  0
   -8.9572   -2.8660   10.0796 C   0  0  0  0  0  0
   -8.5585   -5.4473    8.4007 C   0  0  0  0  0  0
   -4.8814   -5.0418   15.4443 C   0  0  0  0  0  0
   -6.7300   -4.0175   16.8897 C   0  0  0  0  0  0
  -10.7696   -4.6593    8.6570 O   0  0  0  0  0  0
   -5.4863   -4.8604   16.7840 C   0  0  0  0  0  0
   -4.9264   -5.3357   17.7746 O   0  0  0  0  0  0
   -6.6923   -3.4759   11.4800 H   0  0  0  0  0  0
   -7.8983   -5.5481   13.3776 H   0  0  0  0  0  0
   -8.0873   -6.1407   11.0474 H   0  0  0  0  0  0
   -5.0770   -5.2646   10.9725 H   0  0  0  0  0  0
   -5.8376   -6.3296   12.1521 H   0  0  0  0  0  0
   -9.0354   -2.7629   12.8780 H   0  0  0  0  0  0
   -9.6960   -4.0122   13.9125 H   0  0  0  0  0  0
   -6.6458   -6.1611    9.1974 H   0  0  0  0  0  0
   -6.7239   -4.4096    8.9683 H   0  0  0  0  0  0
   -4.4299   -3.6693   12.7011 H   0  0  0  0  0  0
   -3.8401   -5.2746   13.0948 H   0  0  0  0  0  0
   -7.9737   -5.2238   15.6447 H   0  0  0  0  0  0
   -8.4781   -3.5431   15.7537 H   0  0  0  0  0  0
   -5.9383   -1.9977   14.9241 H   0  0  0  0  0  0
   -7.5827   -1.8270   14.3207 H   0  0  0  0  0  0
   -6.2496   -2.0983   13.1961 H   0  0  0  0  0  0
  -10.8929   -3.8622   11.7466 H   0  0  0  0  0  0
  -10.2149   -5.4520   12.0579 H   0  0  0  0  0  0
   -9.9880   -6.2270    9.7803 H   0  0  0  0  0  0
   -9.9174   -2.3467    9.9796 H   0  0  0  0  0  0
   -8.4346   -2.7705    9.1227 H   0  0  0  0  0  0
   -8.3756   -2.3048   10.8152 H   0  0  0  0  0  0
   -8.5881   -6.4476    7.9503 H   0  0  0  0  0  0
   -8.5093   -4.7297    7.5704 H   0  0  0  0  0  0
   -3.9089   -5.5225   15.4297 H   0  0  0  0  0  0
   -7.2938   -4.3402   17.7719 H   0  0  0  0  0  0
   -6.4356   -2.9736   17.0365 H   0  0  0  0  0  0
  -11.0498   -5.1890    8.0543 H   0  0  0  0  0  0
  1  2  1  0  0  0
  1  3  1  0  0  0
  1  4  1  0  0  0
  1 22  1  0  0  0
  2  5  1  0  0  0
  2  6  1  0  0  0
  2 23  1  0  0  0
  3  7  1  0  0  0
  3  8  1  0  0  0
  3 24  1  0  0  0
  4  9  1  0  0  0
  4 25  1  0  0  0
  4 26  1  0  0  0
  5 10  1  0  0  0
  5 11  1  0  0  0
  5 12  1  0  0  0
  6 13  1  0  0  0
  6 27  1  0  0  0
  6 28  1  0  0  0
  7 13  1  0  0  0
  7 14  1  0  0  0
  7 15  1  0  0  0
  8 16  1  0  0  0
  8 29  1  0  0  0
  8 30  1  0  0  0
  9 10  1  0  0  0
  9 31  1  0  0  0
  9 32  1  0  0  0
 10 17  2  0  0  0
 11 18  1  0  0  0
 11 33  1  0  0  0
 11 34  1  0  0  0
 12 35  1  0  0  0
 12 36  1  0  0  0
 12 37  1  0  0  0
 13 38  1  0  0  0
 13 39  1  0  0  0
 14 16  1  0  0  0
 14 19  1  0  0  0
 14 40  1  0  0  0
 15 41  1  0  0  0
 15 42  1  0  0  0
 15 43  1  0  0  0
 16 44  1  0  0  0
 16 45  1  0  0  0
 17 20  1  0  0  0
 17 46  1  0  0  0
 18 20  1  0  0  0
 18 47  1  0  0  0
 18 48  1  0  0  0
 19 49  1  0  0  0
 20 21  2  0  0  0
M  END
>  <Name>
tox-580

>  <substance>
Testosterone

>  <CASRN>
58-22-0

>  <from_NCI>
1

>  <RBA>
0.007000

>  <method>
hERa,hERa,hERa-FP,MUC,RBC,RUC,RUC

>  <chemical_class>
Steroid, nonphenolic

>  <set>
0

$$$$
tox-581
  Cerius2 12190218273D 1   1.00000                          
 Structure written by MMmdl.
 22 23  0  0  0  0  0  0  0  0999 V2000
   -0.6530    0.3431    0.0185 C   0  0  0  0  0  0
   -1.7057   -0.0148   -0.8533 C   0  0  0  0  0  0
   -2.9248    0.6821   -0.8063 C   0  0  0  0  0  0
   -3.1043    1.7277    0.1030 C   0  0  0  0  0  0
   -2.0748    2.0841    0.9698 C   0  0  0  0  0  0
   -0.8617    1.3975    0.9282 C   0  0  0  0  0  0
    0.6530   -0.3432    0.0185 C   0  0  0  0  0  0
    1.7057    0.0147   -0.8534 C   0  0  0  0  0  0
    2.9248   -0.6822   -0.8063 C   0  0  0  0  0  0
    3.1043   -1.7277    0.1030 C   0  0  0  0  0  0
    2.0748   -2.0841    0.9698 C   0  0  0  0  0  0
    0.8617   -1.3975    0.9282 C   0  0  0  0  0  0
    4.2549   -0.2994   -1.8474 Cl  0  0  0  0  0  0
   -4.2550    0.2993   -1.8473 Cl  0  0  0  0  0  0
    1.4866    1.3243   -1.9796 Cl  0  0  0  0  0  0
   -1.4866   -1.3244   -1.9795 Cl  0  0  0  0  0  0
   -4.0465    2.2705    0.1436 H   0  0  0  0  0  0
   -2.2159    2.8981    1.6788 H   0  0  0  0  0  0
   -0.0676    1.6933    1.6143 H   0  0  0  0  0  0
    4.0464   -2.2705    0.1436 H   0  0  0  0  0  0
    2.2159   -2.8980    1.6789 H   0  0  0  0  0  0
    0.0676   -1.6932    1.6144 H   0  0  0  0  0  0
  1  2  2  0  0  0
  1  6  1  0  0  0
  1  7  1  0  0  0
  2  3  1  0  0  0
  2 16  1  0  0  0
  3  4  2  0  0  0
  3 14  1  0  0  0
  4  5  1  0  0  0
  4 17  1  0  0  0
  5  6  2  0  0  0
  5 18  1  0  0  0
  6 19  1  0  0  0
  7  8  2  0  0  0
  7 12  1  0  0  0
  8  9  1  0  0  0
  8 15  1  0  0  0
  9 10  2  0  0  0
  9 13  1  0  0  0
 10 11  1  0  0  0
 10 20  1  0  0  0
 11 12  2  0  0  0
 11 21  1  0  0  0
 12 22  1  0  0  0
M  END
>  <Name>
tox-581

>  <substance>
2,2',3,3'-Tetrachlorobiphenyl

>  <CASRN>
3844-93-8

>  <from_NCI>
0

>  <RBA>
0.000000

>  <method>
GST-hERadef

>  <chemical_class>
Polychlorinated biphenyl

>  <set>
0

$$$$
tox-582
  Cerius2 12190218273D 1   1.00000                          
 Structure written by MMmdl.
 22 23  0  0  0  0  0  0  0  0999 V2000
    0.1984    0.4300   -0.0049 C   0  0  0  0  0  0
    0.2105   -1.0442    0.0045 C   0  0  0  0  0  0
   -0.7135    1.1864   -0.7771 C   0  0  0  0  0  0
    1.1350    1.1142    0.7886 C   0  0  0  0  0  0
   -0.6167   -1.8066    0.8520 C   0  0  0  0  0  0
    1.0858   -1.7294   -0.8586 C   0  0  0  0  0  0
   -0.6861    2.5951   -0.7430 C   0  0  0  0  0  0
   -1.8726    0.3532   -1.7801 Cl  0  0  0  0  0  0
    1.1648    2.5077    0.8234 C   0  0  0  0  0  0
   -0.5712   -3.2046    0.8277 C   0  0  0  0  0  0
   -1.7167   -1.0576    1.9605 Cl  0  0  0  0  0  0
    1.1293   -3.1255   -0.8808 C   0  0  0  0  0  0
    0.2586    3.2473    0.0630 C   0  0  0  0  0  0
   -1.8109    3.5269   -1.6903 Cl  0  0  0  0  0  0
    0.3007   -3.8623   -0.0390 C   0  0  0  0  0  0
    0.3637    4.9732    0.1660 Cl  0  0  0  0  0  0
    1.8517    0.5581    1.3932 H   0  0  0  0  0  0
    1.7430   -1.1729   -1.5267 H   0  0  0  0  0  0
    1.9008    3.0079    1.4498 H   0  0  0  0  0  0
   -1.2126   -3.7895    1.4835 H   0  0  0  0  0  0
    1.8120   -3.6369   -1.5574 H   0  0  0  0  0  0
    0.3343   -4.9502   -0.0559 H   0  0  0  0  0  0
  1  2  1  0  0  0
  1  3  2  0  0  0
  1  4  1  0  0  0
  2  5  2  0  0  0
  2  6  1  0  0  0
  3  7  1  0  0  0
  3  8  1  0  0  0
  4  9  2  0  0  0
  4 17  1  0  0  0
  5 10  1  0  0  0
  5 11  1  0  0  0
  6 12  2  0  0  0
  6 18  1  0  0  0
  7 13  2  0  0  0
  7 14  1  0  0  0
  9 13  1  0  0  0
  9 19  1  0  0  0
 10 15  2  0  0  0
 10 20  1  0  0  0
 12 15  1  0  0  0
 12 21  1  0  0  0
 13 16  1  0  0  0
 15 22  1  0  0  0
M  END
>  <Name>
tox-582

>  <substance>
2,2',3,4-Tetrachlorobiphenyl

>  <CASRN>
52663-59-9

>  <from_NCI>
1

>  <RBA>
0.000000

>  <method>
GST-hERadef

>  <chemical_class>
Polychlorinated biphenyl

>  <set>
0

$$$$
tox-583
  Cerius2 12190218273D 1   1.00000                          
 Structure written by MMmdl.
 22 23  0  0  0  0  0  0  0  0999 V2000
   -3.3599    1.7692    0.0744 C   0  0  0  0  0  0
   -3.1063    0.7397    0.9767 C   0  0  0  0  0  0
   -1.8852    0.0624    0.9404 C   0  0  0  0  0  0
   -0.8946    0.4034    0.0001 C   0  0  0  0  0  0
   -1.1696    1.4472   -0.9047 C   0  0  0  0  0  0
   -2.3932    2.1235   -0.8659 C   0  0  0  0  0  0
    0.3840   -0.3380   -0.0061 C   0  0  0  0  0  0
    0.5404   -1.5026   -0.7889 C   0  0  0  0  0  0
    1.7467   -2.2081   -0.8053 C   0  0  0  0  0  0
    2.8246   -1.7678   -0.0416 C   0  0  0  0  0  0
    2.7014   -0.6204    0.7421 C   0  0  0  0  0  0
    1.4909    0.0949    0.7648 C   0  0  0  0  0  0
    1.3523    1.5284    1.7483 Cl  0  0  0  0  0  0
   -0.7468   -2.1204   -1.7733 Cl  0  0  0  0  0  0
   -0.0152    1.9395   -2.0981 Cl  0  0  0  0  0  0
    4.0869   -0.1375    1.6618 Cl  0  0  0  0  0  0
   -4.3115    2.2970    0.1026 H   0  0  0  0  0  0
   -3.8600    0.4614    1.7115 H   0  0  0  0  0  0
   -1.7087   -0.7403    1.6561 H   0  0  0  0  0  0
   -2.6015    2.9294   -1.5665 H   0  0  0  0  0  0
    1.8558   -3.1042   -1.4130 H   0  0  0  0  0  0
    3.7577   -2.3268   -0.0647 H   0  0  0  0  0  0
  1  2  2  0  0  0
  1  6  1  0  0  0
  1 17  1  0  0  0
  2  3  1  0  0  0
  2 18  1  0  0  0
  3  4  2  0  0  0
  3 19  1  0  0  0
  4  5  1  0  0  0
  4  7  1  0  0  0
  5  6  2  0  0  0
  5 15  1  0  0  0
  6 20  1  0  0  0
  7  8  2  0  0  0
  7 12  1  0  0  0
  8  9  1  0  0  0
  8 14  1  0  0  0
  9 10  2  0  0  0
  9 21  1  0  0  0
 10 11  1  0  0  0
 10 22  1  0  0  0
 11 12  2  0  0  0
 11 16  1  0  0  0
 12 13  1  0  0  0
M  END
>  <Name>
tox-583

>  <substance>
2,2',3,6-Tetrachlorobiphenyl

>  <CASRN>
41464-47-5

>  <from_NCI>
1

>  <RBA>
0.000000

>  <method>
GST-hERadef

>  <chemical_class>
Polychlorinated biphenyl

>  <set>
0

$$$$
tox-584
  Cerius2 12190218273D 1   1.00000                          
 Structure written by MMmdl.
 22 23  0  0  0  0  0  0  0  0999 V2000
    0.7362   -0.2190   -0.0089 C   0  0  0  0  0  0
   -0.7361   -0.2190    0.0088 C   0  0  0  0  0  0
    1.4887    0.6531   -0.8206 C   0  0  0  0  0  0
    1.4313   -1.1257    0.8122 C   0  0  0  0  0  0
   -1.4886    0.6531    0.8206 C   0  0  0  0  0  0
   -1.4313   -1.1257   -0.8123 C   0  0  0  0  0  0
    2.8865    0.6234   -0.8061 C   0  0  0  0  0  0
    0.7234    1.7946   -1.8756 Cl  0  0  0  0  0  0
    2.8281   -1.1564    0.8276 C   0  0  0  0  0  0
   -2.8865    0.6234    0.8061 C   0  0  0  0  0  0
   -0.7233    1.7946    1.8757 Cl  0  0  0  0  0  0
   -2.8281   -1.1563   -0.8277 C   0  0  0  0  0  0
    3.5479   -0.2813    0.0193 C   0  0  0  0  0  0
   -3.5479   -0.2812   -0.0193 C   0  0  0  0  0  0
    5.2689   -0.3202    0.0394 Cl  0  0  0  0  0  0
   -5.2689   -0.3201   -0.0394 Cl  0  0  0  0  0  0
    0.8831   -1.8168    1.4523 H   0  0  0  0  0  0
   -0.8831   -1.8167   -1.4523 H   0  0  0  0  0  0
    3.4549    1.3020   -1.4366 H   0  0  0  0  0  0
    3.3418   -1.8654    1.4730 H   0  0  0  0  0  0
   -3.4548    1.3019    1.4366 H   0  0  0  0  0  0
   -3.3418   -1.8654   -1.4731 H   0  0  0  0  0  0
  1  2  1  0  0  0
  1  3  2  0  0  0
  1  4  1  0  0  0
  2  5  2  0  0  0
  2  6  1  0  0  0
  3  7  1  0  0  0
  3  8  1  0  0  0
  4  9  2  0  0  0
  4 17  1  0  0  0
  5 10  1  0  0  0
  5 11  1  0  0  0
  6 12  2  0  0  0
  6 18  1  0  0  0
  7 13  2  0  0  0
  7 19  1  0  0  0
  9 13  1  0  0  0
  9 20  1  0  0  0
 10 14  2  0  0  0
 10 21  1  0  0  0
 12 14  1  0  0  0
 12 22  1  0  0  0
 13 15  1  0  0  0
 14 16  1  0  0  0
M  END
>  <Name>
tox-584

>  <substance>
2,2',4,4'-Tetrachlorobiphenyl

>  <CASRN>
2437-79-8

>  <from_NCI>
1

>  <RBA>
0.000000

>  <method>
GST-hERadef,RUC

>  <chemical_class>
Polychlorinated biphenyl

>  <set>
0

$$$$
tox-585
  Cerius2 12190218273D 1   1.00000                          
 Structure written by MMmdl.
 22 23  0  0  0  0  0  0  0  0999 V2000
   -1.0453   -0.0081   -0.0354 C   0  0  0  0  0  0
    0.4268    0.0199   -0.0206 C   0  0  0  0  0  0
   -1.7814   -0.8718   -0.8704 C   0  0  0  0  0  0
   -1.7552    0.8583    0.8176 C   0  0  0  0  0  0
    1.1827    0.7997   -0.9185 C   0  0  0  0  0  0
    1.1177   -0.7571    0.9271 C   0  0  0  0  0  0
   -3.1803   -0.8624   -0.8538 C   0  0  0  0  0  0
   -0.9991   -1.9812   -1.9451 Cl  0  0  0  0  0  0
   -3.1506    0.8629    0.8281 C   0  0  0  0  0  0
    2.5801    0.7970   -0.8738 C   0  0  0  0  0  0
    0.4215    1.7998   -2.1110 Cl  0  0  0  0  0  0
    2.5142   -0.7606    0.9728 C   0  0  0  0  0  0
   -3.8656    0.0067   -0.0042 C   0  0  0  0  0  0
   -3.9935    1.9357    1.8777 Cl  0  0  0  0  0  0
    3.2376    0.0155    0.0718 C   0  0  0  0  0  0
    4.9582    0.0099    0.1294 Cl  0  0  0  0  0  0
   -1.2114    1.5355    1.4745 H   0  0  0  0  0  0
    0.5669   -1.3716    1.6389 H   0  0  0  0  0  0
   -3.7452   -1.5306   -1.5005 H   0  0  0  0  0  0
    3.1513    1.4026   -1.5725 H   0  0  0  0  0  0
    3.0249   -1.3717    1.7137 H   0  0  0  0  0  0
   -4.9531    0.0069    0.0011 H   0  0  0  0  0  0
  1  2  1  0  0  0
  1  3  2  0  0  0
  1  4  1  0  0  0
  2  5  2  0  0  0
  2  6  1  0  0  0
  3  7  1  0  0  0
  3  8  1  0  0  0
  4  9  2  0  0  0
  4 17  1  0  0  0
  5 10  1  0  0  0
  5 11  1  0  0  0
  6 12  2  0  0  0
  6 18  1  0  0  0
  7 13  2  0  0  0
  7 19  1  0  0  0
  9 13  1  0  0  0
  9 14  1  0  0  0
 10 15  2  0  0  0
 10 20  1  0  0  0
 12 15  1  0  0  0
 12 21  1  0  0  0
 13 22  1  0  0  0
 15 16  1  0  0  0
M  END
>  <Name>
tox-585

>  <substance>
2,2',4,5'-Tetrachlorobiphenyl

>  <CASRN>
41464-40-8

>  <from_NCI>
1

>  <RBA>
0.000000

>  <method>
GST-hERadef

>  <chemical_class>
Polychlorinated biphenyl

>  <set>
0

$$$$
tox-586
  Cerius2 12190218273D 1   1.00000                          
 Structure written by MMmdl.
 22 23  0  0  0  0  0  0  0  0999 V2000
   -3.3617    1.7652   -0.0092 C   0  0  0  0  0  0
   -3.1911    0.6464    0.8011 C   0  0  0  0  0  0
   -1.9720   -0.0414    0.8046 C   0  0  0  0  0  0
   -0.8939    0.3755   -0.0040 C   0  0  0  0  0  0
   -1.0938    1.5120   -0.8155 C   0  0  0  0  0  0
   -2.3140    2.1979   -0.8171 C   0  0  0  0  0  0
    0.3935   -0.3471    0.0010 C   0  0  0  0  0  0
    0.5926   -1.4049   -0.9056 C   0  0  0  0  0  0
    1.7972   -2.1120   -0.9304 C   0  0  0  0  0  0
    2.8183   -1.7700   -0.0484 C   0  0  0  0  0  0
    2.6487   -0.7281    0.8589 C   0  0  0  0  0  0
    1.4431   -0.0211    0.8830 C   0  0  0  0  0  0
    1.2903    1.2648    2.0335 Cl  0  0  0  0  0  0
    4.3020   -2.6426   -0.0804 Cl  0  0  0  0  0  0
    0.1570    2.1218   -1.8507 Cl  0  0  0  0  0  0
   -1.8469   -1.4228    1.8459 Cl  0  0  0  0  0  0
   -4.3100    2.2995   -0.0110 H   0  0  0  0  0  0
   -4.0146    0.3141    1.4303 H   0  0  0  0  0  0
   -2.4545    3.0737   -1.4477 H   0  0  0  0  0  0
   -0.1962   -1.6859   -1.6031 H   0  0  0  0  0  0
    1.9268   -2.9257   -1.6405 H   0  0  0  0  0  0
    3.4504   -0.4667    1.5445 H   0  0  0  0  0  0
  1  2  2  0  0  0
  1  6  1  0  0  0
  1 17  1  0  0  0
  2  3  1  0  0  0
  2 18  1  0  0  0
  3  4  2  0  0  0
  3 16  1  0  0  0
  4  5  1  0  0  0
  4  7  1  0  0  0
  5  6  2  0  0  0
  5 15  1  0  0  0
  6 19  1  0  0  0
  7  8  2  0  0  0
  7 12  1  0  0  0
  8  9  1  0  0  0
  8 20  1  0  0  0
  9 10  2  0  0  0
  9 21  1  0  0  0
 10 11  1  0  0  0
 10 14  1  0  0  0
 11 12  2  0  0  0
 11 22  1  0  0  0
 12 13  1  0  0  0
M  END
>  <Name>
tox-586

>  <substance>
2,2',4,6'-Tetrachlorobiphenyl

>  <CASRN>
68194-04-7

>  <from_NCI>
1

>  <RBA>
0.000000

>  <method>
GST-hERadef

>  <chemical_class>
Polychlorinated biphenyl

>  <set>
0

$$$$
tox-587
  Cerius2 12190218273D 1   1.00000                          
 Structure written by MMmdl.
 22 23  0  0  0  0  0  0  0  0999 V2000
   -0.7358    0.0341    0.0259 C   0  0  0  0  0  0
    0.7358    0.0341   -0.0259 C   0  0  0  0  0  0
   -1.4668    0.8970    0.8662 C   0  0  0  0  0  0
   -1.4499   -0.8623   -0.7917 C   0  0  0  0  0  0
    1.4668    0.8970   -0.8662 C   0  0  0  0  0  0
    1.4499   -0.8623    0.7917 C   0  0  0  0  0  0
   -2.8653    0.8652    0.8814 C   0  0  0  0  0  0
   -0.6777    2.0253    1.9159 Cl  0  0  0  0  0  0
   -2.8450   -0.8879   -0.7719 C   0  0  0  0  0  0
    2.8653    0.8652   -0.8814 C   0  0  0  0  0  0
    0.6777    2.0253   -1.9159 Cl  0  0  0  0  0  0
    2.8450   -0.8879    0.7719 C   0  0  0  0  0  0
   -3.5552   -0.0278    0.0606 C   0  0  0  0  0  0
   -3.6937   -1.9910   -1.7847 Cl  0  0  0  0  0  0
    3.5552   -0.0278   -0.0606 C   0  0  0  0  0  0
    3.6937   -1.9910    1.7847 Cl  0  0  0  0  0  0
   -0.9102   -1.5413   -1.4499 H   0  0  0  0  0  0
    0.9102   -1.5413    1.4499 H   0  0  0  0  0  0
   -3.4263    1.5334    1.5313 H   0  0  0  0  0  0
    3.4263    1.5334   -1.5313 H   0  0  0  0  0  0
   -4.6424   -0.0448    0.0793 H   0  0  0  0  0  0
    4.6424   -0.0448   -0.0793 H   0  0  0  0  0  0
  1  2  1  0  0  0
  1  3  2  0  0  0
  1  4  1  0  0  0
  2  5  2  0  0  0
  2  6  1  0  0  0
  3  7  1  0  0  0
  3  8  1  0  0  0
  4  9  2  0  0  0
  4 17  1  0  0  0
  5 10  1  0  0  0
  5 11  1  0  0  0
  6 12  2  0  0  0
  6 18  1  0  0  0
  7 13  2  0  0  0
  7 19  1  0  0  0
  9 13  1  0  0  0
  9 14  1  0  0  0
 10 15  2  0  0  0
 10 20  1  0  0  0
 12 15  1  0  0  0
 12 16  1  0  0  0
 13 21  1  0  0  0
 15 22  1  0  0  0
M  END
>  <Name>
tox-587

>  <substance>
2,2',5,5'-Tetrachlorobiphenyl

>  <CASRN>
35693-99-3

>  <from_NCI>
1

>  <RBA>
0.000000

>  <method>
hERa

>  <chemical_class>
Polychlorinated biphenyl

>  <set>
0

$$$$
tox-588
  Cerius2 12190218273D 1   1.00000                          
 Structure written by MMmdl.
 22 23  0  0  0  0  0  0  0  0999 V2000
   -0.7399    0.0000    0.0058 C   0  0  0  0  0  0
    0.7399    0.0000    0.0058 C   0  0  0  0  0  0
   -1.4727    0.8524   -0.8466 C   0  0  0  0  0  0
   -1.4727   -0.8523    0.8582 C   0  0  0  0  0  0
    1.4726   -0.8524   -0.8466 C   0  0  0  0  0  0
    1.4727    0.8523    0.8582 C   0  0  0  0  0  0
   -2.8720    0.8514   -0.8455 C   0  0  0  0  0  0
   -0.6820    1.9435   -1.9378 Cl  0  0  0  0  0  0
   -2.8720   -0.8512    0.8572 C   0  0  0  0  0  0
   -0.6820   -1.9435    1.9494 Cl  0  0  0  0  0  0
    2.8720   -0.8514   -0.8455 C   0  0  0  0  0  0
    0.6819   -1.9435   -1.9378 Cl  0  0  0  0  0  0
    2.8720    0.8512    0.8572 C   0  0  0  0  0  0
    0.6820    1.9435    1.9494 Cl  0  0  0  0  0  0
   -3.5709    0.0001    0.0059 C   0  0  0  0  0  0
    3.5709   -0.0001    0.0059 C   0  0  0  0  0  0
   -3.4256    1.5139   -1.5081 H   0  0  0  0  0  0
   -3.4256   -1.5138    1.5198 H   0  0  0  0  0  0
    3.4256   -1.5140   -1.5081 H   0  0  0  0  0  0
    3.4256    1.5137    1.5198 H   0  0  0  0  0  0
   -4.6593    0.0002    0.0059 H   0  0  0  0  0  0
    4.6593   -0.0002    0.0059 H   0  0  0  0  0  0
  1  2  1  0  0  0
  1  3  2  0  0  0
  1  4  1  0  0  0
  2  5  2  0  0  0
  2  6  1  0  0  0
  3  7  1  0  0  0
  3  8  1  0  0  0
  4  9  2  0  0  0
  4 10  1  0  0  0
  5 11  1  0  0  0
  5 12  1  0  0  0
  6 13  2  0  0  0
  6 14  1  0  0  0
  7 15  2  0  0  0
  7 17  1  0  0  0
  9 15  1  0  0  0
  9 18  1  0  0  0
 11 16  2  0  0  0
 11 19  1  0  0  0
 13 16  1  0  0  0
 13 20  1  0  0  0
 15 21  1  0  0  0
 16 22  1  0  0  0
M  END
>  <Name>
tox-588

>  <substance>
2,2',6,6'-Tetrachlorobiphenyl

>  <CASRN>
15968-05-5

>  <from_NCI>
1

>  <RBA>
0.000000

>  <method>
GST-hERadef,hERa,hERa

>  <chemical_class>
Polychlorinated biphenyl

>  <set>
1

$$$$
tox-589
  Cerius2 12190218273D 1   1.00000                          
 Structure written by MMmdl.
 22 23  0  0  0  0  0  0  0  0999 V2000
   -3.0986    1.4379    0.0424 C   0  0  0  0  0  0
   -2.9181    0.3192   -0.7655 C   0  0  0  0  0  0
   -1.6973   -0.3574   -0.7840 C   0  0  0  0  0  0
   -0.6291    0.0838    0.0124 C   0  0  0  0  0  0
   -0.8186    1.2097    0.8290 C   0  0  0  0  0  0
   -2.0443    1.8773    0.8376 C   0  0  0  0  0  0
    0.6590   -0.6248   -0.0023 C   0  0  0  0  0  0
    0.8108   -1.7625    0.8128 C   0  0  0  0  0  0
    2.0100   -2.4741    0.8425 C   0  0  0  0  0  0
    3.0817   -2.0612    0.0559 C   0  0  0  0  0  0
    2.9570   -0.9363   -0.7635 C   0  0  0  0  0  0
    1.7516   -0.2147   -0.7984 C   0  0  0  0  0  0
    1.5952    1.1810   -1.8276 Cl  0  0  0  0  0  0
    4.3355   -0.4901   -1.7125 Cl  0  0  0  0  0  0
   -2.2536    3.2596    1.8436 Cl  0  0  0  0  0  0
   -4.2147   -0.2371   -1.7535 Cl  0  0  0  0  0  0
   -4.0506    1.9610    0.0528 H   0  0  0  0  0  0
   -1.5735   -1.2305   -1.4225 H   0  0  0  0  0  0
   -0.0051    1.5665    1.4583 H   0  0  0  0  0  0
   -0.0161   -2.1014    1.4376 H   0  0  0  0  0  0
    2.1073   -3.3509    1.4804 H   0  0  0  0  0  0
    4.0128   -2.6234    0.0866 H   0  0  0  0  0  0
  1  2  2  0  0  0
  1  6  1  0  0  0
  1 17  1  0  0  0
  2  3  1  0  0  0
  2 16  1  0  0  0
  3  4  2  0  0  0
  3 18  1  0  0  0
  4  5  1  0  0  0
  4  7  1  0  0  0
  5  6  2  0  0  0
  5 19  1  0  0  0
  6 15  1  0  0  0
  7  8  2  0  0  0
  7 12  1  0  0  0
  8  9  1  0  0  0
  8 20  1  0  0  0
  9 10  2  0  0  0
  9 21  1  0  0  0
 10 11  1  0  0  0
 10 22  1  0  0  0
 11 12  2  0  0  0
 11 14  1  0  0  0
 12 13  1  0  0  0
M  END
>  <Name>
tox-589

>  <substance>
2,3,3',5'-Tetrachlorobiphenyl

>  <CASRN>
41464-49-7

>  <from_NCI>
1

>  <RBA>
0.000000

>  <method>
GST-hERadef

>  <chemical_class>
Polychlorinated biphenyl

>  <set>
1

$$$$
tox-590
  Cerius2 12190218273D 1   1.00000                          
 Structure written by MMmdl.
 22 23  0  0  0  0  0  0  0  0999 V2000
    0.7305   -0.2100   -0.0087 C   0  0  0  0  0  0
   -0.7395   -0.2390   -0.0048 C   0  0  0  0  0  0
    1.4808    0.7315   -0.7502 C   0  0  0  0  0  0
    1.4208   -1.1623    0.7600 C   0  0  0  0  0  0
   -1.4424   -1.0460   -0.9139 C   0  0  0  0  0  0
   -1.4693    0.5304    0.9157 C   0  0  0  0  0  0
    2.8898    0.7130   -0.7157 C   0  0  0  0  0  0
    0.6408    1.9187   -1.7141 Cl  0  0  0  0  0  0
    2.8147   -1.1832    0.7959 C   0  0  0  0  0  0
   -2.8400   -1.0773   -0.9084 C   0  0  0  0  0  0
   -2.8670    0.5000    0.9221 C   0  0  0  0  0  0
    3.5483   -0.2505    0.0624 C   0  0  0  0  0  0
    3.8147    1.8721   -1.6283 Cl  0  0  0  0  0  0
   -3.5462   -0.3033    0.0093 C   0  0  0  0  0  0
    5.2749   -0.3469    0.1634 Cl  0  0  0  0  0  0
   -5.2670   -0.3412    0.0167 Cl  0  0  0  0  0  0
    0.8687   -1.9007    1.3419 H   0  0  0  0  0  0
   -0.9029   -1.6568   -1.6369 H   0  0  0  0  0  0
   -0.9511    1.1625    1.6359 H   0  0  0  0  0  0
    3.3194   -1.9335    1.4014 H   0  0  0  0  0  0
   -3.3650   -1.7075   -1.6223 H   0  0  0  0  0  0
   -3.4131    1.1052    1.6419 H   0  0  0  0  0  0
  1  2  1  0  0  0
  1  3  2  0  0  0
  1  4  1  0  0  0
  2  5  2  0  0  0
  2  6  1  0  0  0
  3  7  1  0  0  0
  3  8  1  0  0  0
  4  9  2  0  0  0
  4 17  1  0  0  0
  5 10  1  0  0  0
  5 18  1  0  0  0
  6 11  2  0  0  0
  6 19  1  0  0  0
  7 12  2  0  0  0
  7 13  1  0  0  0
  9 12  1  0  0  0
  9 20  1  0  0  0
 10 14  2  0  0  0
 10 21  1  0  0  0
 11 14  1  0  0  0
 11 22  1  0  0  0
 12 15  1  0  0  0
 14 16  1  0  0  0
M  END
>  <Name>
tox-590

>  <substance>
2,3,4,4'-Tetrachlorobiphenyl

>  <CASRN>
33025-41-1

>  <from_NCI>
1

>  <RBA>
0.000000

>  <method>
GST-hERadef

>  <chemical_class>
Polychlorinated biphenyl

>  <set>
0

$$$$
tox-591
  Cerius2 12190218273D 1   1.00000                          
 Structure written by MMmdl.
 22 23  0  0  0  0  0  0  0  0999 V2000
    0.4192    0.0370   -0.0217 C   0  0  0  0  0  0
   -1.0503    0.0201   -0.0076 C   0  0  0  0  0  0
    1.1678    0.9439   -0.7987 C   0  0  0  0  0  0
    1.1208   -0.8896    0.7713 C   0  0  0  0  0  0
   -1.7613   -0.9589   -0.7192 C   0  0  0  0  0  0
   -1.7729    0.9753    0.7249 C   0  0  0  0  0  0
    2.5662    0.9265   -0.7788 C   0  0  0  0  0  0
    0.3993    2.1092   -1.8254 Cl  0  0  0  0  0  0
    2.5179   -0.9082    0.7922 C   0  0  0  0  0  0
   -3.1571   -0.9716   -0.7014 C   0  0  0  0  0  0
   -3.1685    0.9517    0.7339 C   0  0  0  0  0  0
    3.2330    0.0004    0.0177 C   0  0  0  0  0  0
   -3.8675   -0.0188    0.0225 C   0  0  0  0  0  0
   -4.0086   -2.1800   -1.5854 Cl  0  0  0  0  0  0
   -4.0339    2.1364    1.6361 Cl  0  0  0  0  0  0
    4.9541   -0.0234    0.0440 Cl  0  0  0  0  0  0
    0.5770   -1.6066    1.3863 H   0  0  0  0  0  0
   -1.2222   -1.7113   -1.2924 H   0  0  0  0  0  0
   -1.2429    1.7406    1.2894 H   0  0  0  0  0  0
    3.1307    1.6309   -1.3839 H   0  0  0  0  0  0
    3.0353   -1.6341    1.4156 H   0  0  0  0  0  0
   -4.9536   -0.0329    0.0328 H   0  0  0  0  0  0
  1  2  1  0  0  0
  1  3  2  0  0  0
  1  4  1  0  0  0
  2  5  2  0  0  0
  2  6  1  0  0  0
  3  7  1  0  0  0
  3  8  1  0  0  0
  4  9  2  0  0  0
  4 17  1  0  0  0
  5 10  1  0  0  0
  5 18  1  0  0  0
  6 11  2  0  0  0
  6 19  1  0  0  0
  7 12  2  0  0  0
  7 20  1  0  0  0
  9 12  1  0  0  0
  9 21  1  0  0  0
 10 13  2  0  0  0
 10 14  1  0  0  0
 11 13  1  0  0  0
 11 15  1  0  0  0
 12 16  1  0  0  0
 13 22  1  0  0  0
M  END
>  <Name>
tox-591

>  <substance>
2,3',4,5'-Tetrachlorobiphenyl

>  <CASRN>
73575-52-7

>  <from_NCI>
1

>  <RBA>
0.000000

>  <method>
GST-hERadef

>  <chemical_class>
Polychlorinated biphenyl

>  <set>
0

$$$$
tox-592
  Cerius2 12190218273D 1   1.00000                          
 Structure written by MMmdl.
 22 23  0  0  0  0  0  0  0  0999 V2000
   -0.4329    0.0266   -0.0279 C   0  0  0  0  0  0
    1.0371    0.0362   -0.0297 C   0  0  0  0  0  0
   -1.1572    0.9394    0.7560 C   0  0  0  0  0  0
   -1.1431   -0.9038   -0.8013 C   0  0  0  0  0  0
    1.7957    0.9989   -0.7252 C   0  0  0  0  0  0
    1.7269   -0.9565    0.6924 C   0  0  0  0  0  0
   -2.5568    0.9293    0.7597 C   0  0  0  0  0  0
   -2.5410   -0.9173   -0.7993 C   0  0  0  0  0  0
    3.1946    0.9687   -0.6925 C   0  0  0  0  0  0
    1.0457    2.2476   -1.6619 Cl  0  0  0  0  0  0
    3.1221   -0.9808    0.7205 C   0  0  0  0  0  0
   -3.2506   -0.0012   -0.0205 C   0  0  0  0  0  0
   -3.3683    2.0919    1.7506 Cl  0  0  0  0  0  0
    3.8585   -0.0217    0.0319 C   0  0  0  0  0  0
    3.9378   -2.2052    1.6142 Cl  0  0  0  0  0  0
   -4.9775   -0.0701   -0.0633 Cl  0  0  0  0  0  0
   -0.6235    1.6648    1.3682 H   0  0  0  0  0  0
   -0.6096   -1.6267   -1.4182 H   0  0  0  0  0  0
    1.1669   -1.7132    1.2398 H   0  0  0  0  0  0
   -3.0663   -1.6480   -1.4106 H   0  0  0  0  0  0
    3.7761    1.7134   -1.2320 H   0  0  0  0  0  0
    4.9457   -0.0367    0.0507 H   0  0  0  0  0  0
  1  2  1  0  0  0
  1  3  2  0  0  0
  1  4  1  0  0  0
  2  5  2  0  0  0
  2  6  1  0  0  0
  3  7  1  0  0  0
  3 17  1  0  0  0
  4  8  2  0  0  0
  4 18  1  0  0  0
  5  9  1  0  0  0
  5 10  1  0  0  0
  6 11  2  0  0  0
  6 19  1  0  0  0
  7 12  2  0  0  0
  7 13  1  0  0  0
  8 12  1  0  0  0
  8 20  1  0  0  0
  9 14  2  0  0  0
  9 21  1  0  0  0
 11 14  1  0  0  0
 11 15  1  0  0  0
 12 16  1  0  0  0
 14 22  1  0  0  0
M  END
>  <Name>
tox-592

>  <substance>
2,3',4',5-Tetrachlorobiphenyl

>  <CASRN>
32598-11-1

>  <from_NCI>
1

>  <RBA>
0.000000

>  <method>
GST-hERadef

>  <chemical_class>
Polychlorinated biphenyl

>  <set>
0

$$$$
tox-593
  Cerius2 12190218273D 1   1.00000                          
 Structure written by MMmdl.
 22 23  0  0  0  0  0  0  0  0999 V2000
    0.7305    0.0345   -0.0420 C   0  0  0  0  0  0
   -0.7389    0.0192   -0.0180 C   0  0  0  0  0  0
    1.4753    1.0160   -0.7232 C   0  0  0  0  0  0
    1.4339   -0.9739    0.6435 C   0  0  0  0  0  0
   -1.4591   -0.8643   -0.8381 C   0  0  0  0  0  0
   -1.4531    0.8767    0.8346 C   0  0  0  0  0  0
    2.8738    0.9911   -0.7146 C   0  0  0  0  0  0
    0.7059    2.2871   -1.6137 Cl  0  0  0  0  0  0
    2.8326   -1.0016    0.6538 C   0  0  0  0  0  0
   -2.8569   -0.8848   -0.8128 C   0  0  0  0  0  0
   -2.8508    0.8575    0.8611 C   0  0  0  0  0  0
    3.5528   -0.0159   -0.0265 C   0  0  0  0  0  0
    3.6081   -2.2781    1.5251 Cl  0  0  0  0  0  0
   -3.5466   -0.0230    0.0364 C   0  0  0  0  0  0
    5.2818    0.0110   -0.0557 Cl  0  0  0  0  0  0
   -5.2673   -0.0475    0.0682 Cl  0  0  0  0  0  0
    0.8794   -1.7442    1.1783 H   0  0  0  0  0  0
   -0.9335   -1.5438   -1.5082 H   0  0  0  0  0  0
   -0.9225    1.5693    1.4872 H   0  0  0  0  0  0
    3.4331    1.7567   -1.2470 H   0  0  0  0  0  0
   -3.3947   -1.5754   -1.4581 H   0  0  0  0  0  0
   -3.3837    1.5315    1.5276 H   0  0  0  0  0  0
  1  2  1  0  0  0
  1  3  2  0  0  0
  1  4  1  0  0  0
  2  5  2  0  0  0
  2  6  1  0  0  0
  3  7  1  0  0  0
  3  8  1  0  0  0
  4  9  2  0  0  0
  4 17  1  0  0  0
  5 10  1  0  0  0
  5 18  1  0  0  0
  6 11  2  0  0  0
  6 19  1  0  0  0
  7 12  2  0  0  0
  7 20  1  0  0  0
  9 12  1  0  0  0
  9 13  1  0  0  0
 10 14  2  0  0  0
 10 21  1  0  0  0
 11 14  1  0  0  0
 11 22  1  0  0  0
 12 15  1  0  0  0
 14 16  1  0  0  0
M  END
>  <Name>
tox-593

>  <substance>
2,4,4',5-Tetrachlorobiphenyl

>  <CASRN>
32690-93-0

>  <from_NCI>
1

>  <RBA>
0.000000

>  <method>
GST-hERadef

>  <chemical_class>
Polychlorinated biphenyl

>  <set>
0

$$$$
tox-594
  Cerius2 12190218273D 1   1.00000                          
 Structure written by MMmdl.
 22 23  0  0  0  0  0  0  0  0999 V2000
   -0.7371    0.2607    0.0142 C   0  0  0  0  0  0
    0.7371    0.2607   -0.0142 C   0  0  0  0  0  0
   -1.4729   -0.8329   -0.4755 C   0  0  0  0  0  0
   -1.4522    1.3538    0.5312 C   0  0  0  0  0  0
    1.4729   -0.8329    0.4755 C   0  0  0  0  0  0
    1.4522    1.3538   -0.5311 C   0  0  0  0  0  0
   -2.8736   -0.8354   -0.4499 C   0  0  0  0  0  0
   -2.8509    1.3563    0.5598 C   0  0  0  0  0  0
    2.8736   -0.8354    0.4499 C   0  0  0  0  0  0
    2.8509    1.3563   -0.5598 C   0  0  0  0  0  0
   -3.5645    0.2624    0.0697 C   0  0  0  0  0  0
   -3.6886   -2.2260   -1.0782 Cl  0  0  0  0  0  0
    3.5645    0.2624   -0.0697 C   0  0  0  0  0  0
    3.6886   -2.2260    1.0782 Cl  0  0  0  0  0  0
   -5.2907    0.3270    0.1334 Cl  0  0  0  0  0  0
    5.2907    0.3270   -0.1334 Cl  0  0  0  0  0  0
   -0.9496   -1.6918   -0.8936 H   0  0  0  0  0  0
   -0.9231    2.2192    0.9305 H   0  0  0  0  0  0
    0.9496   -1.6918    0.8935 H   0  0  0  0  0  0
    0.9231    2.2192   -0.9305 H   0  0  0  0  0  0
   -3.3722    2.2187    0.9698 H   0  0  0  0  0  0
    3.3722    2.2187   -0.9698 H   0  0  0  0  0  0
  1  2  1  0  0  0
  1  3  2  0  0  0
  1  4  1  0  0  0
  2  5  2  0  0  0
  2  6  1  0  0  0
  3  7  1  0  0  0
  3 17  1  0  0  0
  4  8  2  0  0  0
  4 18  1  0  0  0
  5  9  1  0  0  0
  5 19  1  0  0  0
  6 10  2  0  0  0
  6 20  1  0  0  0
  7 11  2  0  0  0
  7 12  1  0  0  0
  8 11  1  0  0  0
  8 21  1  0  0  0
  9 13  2  0  0  0
  9 14  1  0  0  0
 10 13  1  0  0  0
 10 22  1  0  0  0
 11 15  1  0  0  0
 13 16  1  0  0  0
M  END
>  <Name>
tox-594

>  <substance>
3,3',4,4'-Tetrachlorobiphenyl

>  <CASRN>
32598-13-3

>  <from_NCI>
1

>  <RBA>
0.000000

>  <method>
GST-hERadef,hERa,RUC

>  <chemical_class>
Polychlorinated biphenyl

>  <set>
0

$$$$
tox-595
  Cerius2 12190218273D 1   1.00000                          
 Structure written by MMmdl.
 22 23  0  0  0  0  0  0  0  0999 V2000
   -3.0891    2.0778    0.0629 C   0  0  0  0  0  0
   -3.0227    0.7965   -0.4765 C   0  0  0  0  0  0
   -1.8143    0.0968   -0.4990 C   0  0  0  0  0  0
   -0.6410    0.6707    0.0214 C   0  0  0  0  0  0
   -0.7266    1.9663    0.5620 C   0  0  0  0  0  0
   -1.9380    2.6640    0.5835 C   0  0  0  0  0  0
    0.6382   -0.0620    0.0010 C   0  0  0  0  0  0
    0.7256   -1.3827    0.4680 C   0  0  0  0  0  0
    1.9401   -2.0819    0.4498 C   0  0  0  0  0  0
    3.1030   -1.4740   -0.0391 C   0  0  0  0  0  0
    3.0275   -0.1566   -0.5079 C   0  0  0  0  0  0
    1.8100    0.5373   -0.4864 C   0  0  0  0  0  0
   -4.4428    0.0685   -1.1241 Cl  0  0  0  0  0  0
    4.4063    0.6851   -1.1352 Cl  0  0  0  0  0  0
    4.6100   -2.3373   -0.0636 Cl  0  0  0  0  0  0
    1.9266   -3.7058    1.0548 Cl  0  0  0  0  0  0
   -4.0287    2.6249    0.0821 H   0  0  0  0  0  0
   -1.7859   -0.9000   -0.9356 H   0  0  0  0  0  0
    0.1560    2.4458    0.9856 H   0  0  0  0  0  0
   -1.9810    3.6648    1.0093 H   0  0  0  0  0  0
   -0.1626   -1.8745    0.8634 H   0  0  0  0  0  0
    1.7752    1.5580   -0.8662 H   0  0  0  0  0  0
  1  2  2  0  0  0
  1  6  1  0  0  0
  1 17  1  0  0  0
  2  3  1  0  0  0
  2 13  1  0  0  0
  3  4  2  0  0  0
  3 18  1  0  0  0
  4  5  1  0  0  0
  4  7  1  0  0  0
  5  6  2  0  0  0
  5 19  1  0  0  0
  6 20  1  0  0  0
  7  8  2  0  0  0
  7 12  1  0  0  0
  8  9  1  0  0  0
  8 21  1  0  0  0
  9 10  2  0  0  0
  9 16  1  0  0  0
 10 11  1  0  0  0
 10 15  1  0  0  0
 11 12  2  0  0  0
 11 14  1  0  0  0
 12 22  1  0  0  0
M  END
>  <Name>
tox-595

>  <substance>
3,3',4,5-Tetrachlorobiphenyl

>  <CASRN>
70362-49-1

>  <from_NCI>
1

>  <RBA>
0.000000

>  <method>
GST-hERadef

>  <chemical_class>
Polychlorinated biphenyl

>  <set>
0

$$$$
tox-596
  Cerius2 12190218273D 1   1.00000                          
 Structure written by MMmdl.
 24 25  0  0  0  0  0  0  0  0999 V2000
   -0.7496    0.0053   -0.3914 C   0  0  0  0  0  0
   -1.4587   -0.6964   -1.3809 C   0  0  0  0  0  0
   -2.8558   -0.7037   -1.3862 C   0  0  0  0  0  0
   -3.5515   -0.0102   -0.4031 C   0  0  0  0  0  0
   -2.8737    0.6920    0.5872 C   0  0  0  0  0  0
   -1.4758    0.6989    0.5920 C   0  0  0  0  0  0
    0.7275    0.0136   -0.3846 C   0  0  0  0  0  0
    1.4527    1.0122   -1.0841 C   0  0  0  0  0  0
    2.8594    1.0197   -1.0776 C   0  0  0  0  0  0
    3.5547    0.0310   -0.3731 C   0  0  0  0  0  0
    2.8606   -0.9647    0.3248 C   0  0  0  0  0  0
    1.4560   -0.9763    0.3213 C   0  0  0  0  0  0
   -4.9144   -0.0403   -0.4408 O   0  0  0  0  0  0
    4.9324    0.0473   -0.3732 O   0  0  0  0  0  0
    0.6011   -2.2224    1.1950 Cl  0  0  0  0  0  0
    3.7884   -2.1612    1.1782 Cl  0  0  0  0  0  0
    3.7636    2.2367   -1.9301 Cl  0  0  0  0  0  0
    0.5865    2.2478   -1.9644 Cl  0  0  0  0  0  0
   -0.9251   -1.2439   -2.1568 H   0  0  0  0  0  0
   -3.3917   -1.2511   -2.1581 H   0  0  0  0  0  0
   -3.4108    1.2370    1.3598 H   0  0  0  0  0  0
   -0.9542    1.2521    1.3722 H   0  0  0  0  0  0
   -5.2561    0.4903    0.3104 H   0  0  0  0  0  0
    5.2351   -0.7147    0.1677 H   0  0  0  0  0  0
  1  2  2  0  0  0
  1  6  1  0  0  0
  1  7  1  0  0  0
  2  3  1  0  0  0
  2 19  1  0  0  0
  3  4  2  0  0  0
  3 20  1  0  0  0
  4  5  1  0  0  0
  4 13  1  0  0  0
  5  6  2  0  0  0
  5 21  1  0  0  0
  6 22  1  0  0  0
  7  8  2  0  0  0
  7 12  1  0  0  0
  8  9  1  0  0  0
  8 18  1  0  0  0
  9 10  2  0  0  0
  9 17  1  0  0  0
 10 11  1  0  0  0
 10 14  1  0  0  0
 11 12  2  0  0  0
 11 16  1  0  0  0
 12 15  1  0  0  0
 13 23  1  0  0  0
 14 24  1  0  0  0
M  END
>  <Name>
tox-596

>  <substance>
2',3',5',6'-Tetrachloro-4,4'-biphenyldiol

>  <CASRN>
100702-98-5

>  <from_NCI>
0

>  <RBA>
0.020000

>  <method>
MUC

>  <chemical_class>
Polychlorinated biphenyl

>  <set>
0

$$$$
tox-597
  Cerius2 12190218273D 1   1.00000                          
 Structure written by MMmdl.
 24 25  0  0  0  0  0  0  0  0999 V2000
    0.0155    3.6725    0.0054 C   0  0  0  0  0  0
   -0.0156   -3.6726    0.0005 C   0  0  0  0  0  0
   -0.0031   -0.7369    0.0027 C   0  0  0  0  0  0
    0.0031    0.7368    0.0037 C   0  0  0  0  0  0
   -1.0733    2.8834   -0.4743 C   0  0  0  0  0  0
   -1.0952   -2.8745    0.4861 C   0  0  0  0  0  0
    1.0976    2.8737    0.4843 C   0  0  0  0  0  0
    1.0707   -2.8830   -0.4839 C   0  0  0  0  0  0
    1.0945    1.4631    0.4841 C   0  0  0  0  0  0
   -1.0821    1.4729   -0.4759 C   0  0  0  0  0  0
   -1.0920   -1.4639    0.4879 C   0  0  0  0  0  0
    1.0796   -1.4724   -0.4835 C   0  0  0  0  0  0
    2.5491    3.6114    1.1274 Cl  0  0  0  0  0  0
    2.5124   -3.6329   -1.1348 Cl  0  0  0  0  0  0
   -2.5433   -3.6130    1.1358 Cl  0  0  0  0  0  0
   -2.5185    3.6341   -1.1166 Cl  0  0  0  0  0  0
   -0.0211   -4.9592   -0.0005 O   0  0  0  0  0  0
    0.0209    4.9591    0.0062 O   0  0  0  0  0  0
    1.9613    0.9346    0.8796 H   0  0  0  0  0  0
   -1.9533    0.9521   -0.8719 H   0  0  0  0  0  0
   -1.9566   -0.9358    0.8885 H   0  0  0  0  0  0
    1.9487   -0.9511   -0.8834 H   0  0  0  0  0  0
    0.7091   -5.2454   -0.3283 H   0  0  0  0  0  0
    0.7552    5.2392    0.3300 H   0  0  0  0  0  0
  1  5  2  0  0  0
  1  7  1  0  0  0
  1 18  1  0  0  0
  2  6  2  0  0  0
  2  8  1  0  0  0
  2 17  1  0  0  0
  3  4  1  0  0  0
  3 11  2  0  0  0
  3 12  1  0  0  0
  4  9  1  0  0  0
  4 10  2  0  0  0
  5 10  1  0  0  0
  5 16  1  0  0  0
  6 11  1  0  0  0
  6 15  1  0  0  0
  7  9  2  0  0  0
  7 13  1  0  0  0
  8 12  2  0  0  0
  8 14  1  0  0  0
  9 19  1  0  0  0
 10 20  1  0  0  0
 11 21  1  0  0  0
 12 22  1  0  0  0
 17 23  1  0  0  0
 18 24  1  0  0  0
M  END
>  <Name>
tox-597

>  <substance>
3,3',5,5'-Tetrachloro-4,4'-biphenyldiol

>  <CASRN>
13049-13-3

>  <from_NCI>
1

>  <RBA>
0.200000

>  <method>
MCF-7 cytosol,MUC,MUC,RUC

>  <chemical_class>
Polychlorinated biphenyl

>  <set>
0

$$$$
tox-598
  Cerius2 12190218273D 1   1.00000                          
 Structure written by MMmdl.
 23 24  0  0  0  0  0  0  0  0999 V2000
   -0.9217   -0.0289   -0.0132 C   0  0  0  0  0  0
   -1.6663   -0.8255   -0.8925 C   0  0  0  0  0  0
   -3.0752   -0.8040   -0.8677 C   0  0  0  0  0  0
   -3.8224   -0.0016    0.0191 C   0  0  0  0  0  0
   -3.0434    0.7849    0.8871 C   0  0  0  0  0  0
   -1.6367    0.7789    0.8795 C   0  0  0  0  0  0
    0.5546   -0.0131    0.0034 C   0  0  0  0  0  0
    1.2886    0.8870   -0.7986 C   0  0  0  0  0  0
    2.6872    0.8999   -0.7868 C   0  0  0  0  0  0
    3.3777    0.0110    0.0283 C   0  0  0  0  0  0
    2.6881   -0.8900    0.8309 C   0  0  0  0  0  0
    1.2896   -0.9013    0.8177 C   0  0  0  0  0  0
   -5.0941    0.0103    0.0332 O   0  0  0  0  0  0
    0.5038   -2.0585    1.8437 Cl  0  0  0  0  0  0
    5.0993    0.0256    0.0434 Cl  0  0  0  0  0  0
    0.5016    2.0239   -1.8462 Cl  0  0  0  0  0  0
   -0.8937   -1.8676   -2.0441 Cl  0  0  0  0  0  0
   -3.6086   -1.4446   -1.5748 H   0  0  0  0  0  0
   -3.5369    1.4401    1.6112 H   0  0  0  0  0  0
   -1.1087    1.4189    1.5861 H   0  0  0  0  0  0
    3.2333    1.6013   -1.4127 H   0  0  0  0  0  0
    3.2350   -1.5831    1.4653 H   0  0  0  0  0  0
   -5.3658    0.5508    0.6303 H   0  0  0  0  0  0
  1  2  2  0  0  0
  1  6  1  0  0  0
  1  7  1  0  0  0
  2  3  1  0  0  0
  2 17  1  0  0  0
  3  4  2  0  0  0
  3 18  1  0  0  0
  4  5  1  0  0  0
  4 13  1  0  0  0
  5  6  2  0  0  0
  5 19  1  0  0  0
  6 20  1  0  0  0
  7  8  2  0  0  0
  7 12  1  0  0  0
  8  9  1  0  0  0
  8 16  1  0  0  0
  9 10  2  0  0  0
  9 21  1  0  0  0
 10 11  1  0  0  0
 10 15  1  0  0  0
 11 12  2  0  0  0
 11 22  1  0  0  0
 12 14  1  0  0  0
 13 23  1  0  0  0
M  END
>  <Name>
tox-598

>  <substance>
2,2',4',6'-Tetrachloro-4-biphenylol

>  <CASRN>
150304-08-8

>  <from_NCI>
1

>  <RBA>
0.100000

>  <method>
hERa,MUC,RUC

>  <chemical_class>
Polychlorinated biphenyl

>  <set>
0

$$$$
tox-599
  Cerius2 12190218273D 1   1.00000                          
 Structure written by MMmdl.
 23 24  0  0  0  0  0  0  0  0999 V2000
   -0.4666    0.0574   -0.3959 C   0  0  0  0  0  0
   -1.2132   -0.7653    0.4750 C   0  0  0  0  0  0
   -2.6124   -0.7349    0.4859 C   0  0  0  0  0  0
   -3.2837    0.1212   -0.3766 C   0  0  0  0  0  0
   -2.5834    0.9449   -1.2471 C   0  0  0  0  0  0
   -1.1856    0.9133   -1.2568 C   0  0  0  0  0  0
    1.0131    0.0235   -0.4056 C   0  0  0  0  0  0
    1.7711    0.8719    0.4285 C   0  0  0  0  0  0
    3.1700    0.8387    0.4185 C   0  0  0  0  0  0
    3.8434   -0.0416   -0.4240 C   0  0  0  0  0  0
    3.1194   -0.8897   -1.2574 C   0  0  0  0  0  0
    1.7204   -0.8585   -1.2493 C   0  0  0  0  0  0
   -4.6465    0.1817   -0.3978 O   0  0  0  0  0  0
    0.8973   -1.9478   -2.3182 Cl  0  0  0  0  0  0
   -0.3764    1.9689   -2.3697 Cl  0  0  0  0  0  0
    1.0129    1.9977    1.5075 Cl  0  0  0  0  0  0
   -0.4362   -1.8568    1.5769 Cl  0  0  0  0  0  0
   -3.1639   -1.3787    1.1664 H   0  0  0  0  0  0
   -3.1252    1.6092   -1.9158 H   0  0  0  0  0  0
    3.7431    1.4984    1.0671 H   0  0  0  0  0  0
    4.9314   -0.0667   -0.4310 H   0  0  0  0  0  0
    3.6531   -1.5749   -1.9131 H   0  0  0  0  0  0
   -5.0012   -0.4498    0.2643 H   0  0  0  0  0  0
  1  2  2  0  0  0
  1  6  1  0  0  0
  1  7  1  0  0  0
  2  3  1  0  0  0
  2 17  1  0  0  0
  3  4  2  0  0  0
  3 18  1  0  0  0
  4  5  1  0  0  0
  4 13  1  0  0  0
  5  6  2  0  0  0
  5 19  1  0  0  0
  6 15  1  0  0  0
  7  8  2  0  0  0
  7 12  1  0  0  0
  8  9  1  0  0  0
  8 16  1  0  0  0
  9 10  2  0  0  0
  9 20  1  0  0  0
 10 11  1  0  0  0
 10 21  1  0  0  0
 11 12  2  0  0  0
 11 22  1  0  0  0
 12 14  1  0  0  0
 13 23  1  0  0  0
M  END
>  <Name>
tox-599

>  <substance>
2,2',6,6'-Tetrachloro-4-biphenylol

>  <CASRN>
219952-18-8

>  <from_NCI>
0

>  <RBA>
0.300000

>  <method>
GST-hERadef,hERa,hERa,hERa

>  <chemical_class>
Polychlorinated biphenyl

>  <set>
0

$$$$
tox-600
  Cerius2 12190218273D 1   1.00000                          
 Structure written by MMmdl.
 23 24  0  0  0  0  0  0  0  0999 V2000
    1.0305    0.0264   -0.4417 C   0  0  0  0  0  0
    1.7436    0.8725    0.4219 C   0  0  0  0  0  0
    3.1343    0.9228    0.3646 C   0  0  0  0  0  0
    3.8408    0.1436   -0.5448 C   0  0  0  0  0  0
    3.1438   -0.6978   -1.4111 C   0  0  0  0  0  0
    1.7483   -0.7552   -1.3616 C   0  0  0  0  0  0
   -0.4383   -0.0285   -0.3952 C   0  0  0  0  0  0
   -1.1508   -0.9632    0.3867 C   0  0  0  0  0  0
   -2.5617   -0.9679    0.3889 C   0  0  0  0  0  0
   -3.2704   -0.0361   -0.3916 C   0  0  0  0  0  0
   -2.5633    0.8920   -1.1669 C   0  0  0  0  0  0
   -1.1662    0.8927   -1.1661 C   0  0  0  0  0  0
    3.7800    1.7603    1.2269 O   0  0  0  0  0  0
   -3.3529    2.0745   -2.1570 Cl  0  0  0  0  0  0
   -5.0118   -0.0262   -0.4021 Cl  0  0  0  0  0  0
   -3.4285   -2.1296    1.3604 Cl  0  0  0  0  0  0
   -0.2637   -2.1123    1.3544 Cl  0  0  0  0  0  0
    1.2141    1.4931    1.1424 H   0  0  0  0  0  0
    4.9265    0.1789   -0.5940 H   0  0  0  0  0  0
    3.6869   -1.3109   -2.1281 H   0  0  0  0  0  0
    1.2220   -1.4180   -2.0480 H   0  0  0  0  0  0
   -0.6309    1.6207   -1.7754 H   0  0  0  0  0  0
    4.7450    1.6853    1.0663 H   0  0  0  0  0  0
  1  2  2  0  0  0
  1  6  1  0  0  0
  1  7  1  0  0  0
  2  3  1  0  0  0
  2 18  1  0  0  0
  3  4  2  0  0  0
  3 13  1  0  0  0
  4  5  1  0  0  0
  4 19  1  0  0  0
  5  6  2  0  0  0
  5 20  1  0  0  0
  6 21  1  0  0  0
  7  8  2  0  0  0
  7 12  1  0  0  0
  8  9  1  0  0  0
  8 17  1  0  0  0
  9 10  2  0  0  0
  9 16  1  0  0  0
 10 11  1  0  0  0
 10 15  1  0  0  0
 11 12  2  0  0  0
 11 14  1  0  0  0
 12 22  1  0  0  0
 13 23  1  0  0  0
M  END
>  <Name>
tox-600

>  <substance>
2',3',4',5'-Tetrachloro-3-biphenylol

>  <CASRN>
67651-37-0

>  <from_NCI>
0

>  <RBA>
0.100000

>  <method>
MCF-7 cytosol

>  <chemical_class>
Polychlorinated biphenyl

>  <set>
1

$$$$
tox-601
  Cerius2 12190218273D 1   1.00000                          
 Structure written by MMmdl.
 23 24  0  0  0  0  0  0  0  0999 V2000
   -2.7686   -0.2618    0.7091 C   0  0  0  0  0  0
   -2.9234   -1.4861    0.0470 C   0  0  0  0  0  0
   -1.8361   -2.0320   -0.6597 C   0  0  0  0  0  0
   -0.6017   -1.3483   -0.6972 C   0  0  0  0  0  0
   -0.4442   -0.1151   -0.0280 C   0  0  0  0  0  0
   -1.5449    0.4112    0.6696 C   0  0  0  0  0  0
   -4.0523    0.4846    1.6020 Cl  0  0  0  0  0  0
   -4.4538   -2.3152    0.1045 Cl  0  0  0  0  0  0
   -2.0153   -3.5561   -1.4912 Cl  0  0  0  0  0  0
    0.7456   -2.0163   -1.5819 Cl  0  0  0  0  0  0
    0.8138    0.6470   -0.0237 C   0  0  0  0  0  0
    1.8338    0.3569    0.8848 C   0  0  0  0  0  0
    3.0251    1.1052    0.8928 C   0  0  0  0  0  0
    3.2697    2.1756    0.0116 C   0  0  0  0  0  0
    2.2193    2.4409   -0.8875 C   0  0  0  0  0  0
    1.0207    1.7046   -0.9115 C   0  0  0  0  0  0
    4.3491    2.8477    0.0272 O   0  0  0  0  0  0
   -1.4404    1.3622    1.1919 H   0  0  0  0  0  0
    1.7188   -0.4546    1.6025 H   0  0  0  0  0  0
    3.7855    0.8271    1.6284 H   0  0  0  0  0  0
    2.3199    3.2564   -1.6097 H   0  0  0  0  0  0
    0.2536    1.9741   -1.6367 H   0  0  0  0  0  0
    4.3169    3.4494   -0.5724 H   0  0  0  0  0  0
  1  2  2  0  0  0
  1  6  1  0  0  0
  1  7  1  0  0  0
  2  3  1  0  0  0
  2  8  1  0  0  0
  3  4  2  0  0  0
  3  9  1  0  0  0
  4  5  1  0  0  0
  4 10  1  0  0  0
  5  6  2  0  0  0
  5 11  1  0  0  0
  6 18  1  0  0  0
 11 12  2  0  0  0
 11 16  1  0  0  0
 12 13  1  0  0  0
 12 19  1  0  0  0
 13 14  2  0  0  0
 13 20  1  0  0  0
 14 15  1  0  0  0
 14 17  1  0  0  0
 15 16  2  0  0  0
 15 21  1  0  0  0
 16 22  1  0  0  0
 17 23  1  0  0  0
M  END
>  <Name>
tox-601

>  <substance>
2',3',4',5'-Tetrachloro-4-biphenylol

>  <CASRN>
67651-34-7

>  <from_NCI>
1

>  <RBA>
2.400000

>  <method>
GST-hERadef,hERa,MCF-7 cytosol,MUC,MUC,MUC,RUC

>  <chemical_class>
Polychlorinated biphenyl

>  <set>
0

$$$$
tox-602
  Cerius2 12190218273D 1   1.00000                          
 Structure written by MMmdl.
 23 24  0  0  0  0  0  0  0  0999 V2000
    0.7875    0.0190   -0.3783 C   0  0  0  0  0  0
    1.5095    0.8311   -1.2681 C   0  0  0  0  0  0
    2.9065    0.8385   -1.2474 C   0  0  0  0  0  0
    3.5977    0.0343   -0.3368 C   0  0  0  0  0  0
    2.8959   -0.7768    0.5524 C   0  0  0  0  0  0
    1.4980   -0.7831    0.5301 C   0  0  0  0  0  0
   -0.6855    0.0086   -0.3971 C   0  0  0  0  0  0
   -1.4028   -0.8910   -1.2142 C   0  0  0  0  0  0
   -2.8012   -0.9023   -1.2325 C   0  0  0  0  0  0
   -3.5079   -0.0120   -0.4326 C   0  0  0  0  0  0
   -2.8346    0.8888    0.3842 C   0  0  0  0  0  0
   -1.4362    0.8983    0.4007 C   0  0  0  0  0  0
    4.9667    0.0394   -0.3138 O   0  0  0  0  0  0
   -0.6685    2.0530    1.4436 Cl  0  0  0  0  0  0
   -5.2295   -0.0248   -0.4541 Cl  0  0  0  0  0  0
    3.7452    1.8554   -2.3635 Cl  0  0  0  0  0  0
   -0.5924   -2.0306   -2.2413 Cl  0  0  0  0  0  0
    0.9777    1.4600   -1.9799 H   0  0  0  0  0  0
    3.4156   -1.4095    1.2682 H   0  0  0  0  0  0
    0.9629   -1.4228    1.2317 H   0  0  0  0  0  0
   -3.3345   -1.6036   -1.8694 H   0  0  0  0  0  0
   -3.3940    1.5827    1.0067 H   0  0  0  0  0  0
    5.2699   -0.5795    0.3831 H   0  0  0  0  0  0
  1  2  2  0  0  0
  1  6  1  0  0  0
  1  7  1  0  0  0
  2  3  1  0  0  0
  2 18  1  0  0  0
  3  4  2  0  0  0
  3 16  1  0  0  0
  4  5  1  0  0  0
  4 13  1  0  0  0
  5  6  2  0  0  0
  5 19  1  0  0  0
  6 20  1  0  0  0
  7  8  2  0  0  0
  7 12  1  0  0  0
  8  9  1  0  0  0
  8 17  1  0  0  0
  9 10  2  0  0  0
  9 21  1  0  0  0
 10 11  1  0  0  0
 10 15  1  0  0  0
 11 12  2  0  0  0
 11 22  1  0  0  0
 12 14  1  0  0  0
 13 23  1  0  0  0
M  END
>  <Name>
tox-602

>  <substance>
2',3,4',6'-Tetrachloro-4-biphenylol

>  <CASRN>
189578-00-5

>  <from_NCI>
0

>  <RBA>
0.060000

>  <method>
hERa,MUC,RUC

>  <chemical_class>
Polychlorinated biphenyl

>  <set>
1

$$$$
tox-603
  Cerius2 12190218273D 1   1.00000                          
 Structure written by MMmdl.
 22 24  0  0  0  0  0  0  0  0999 V2000
   -1.1747   -0.6900    0.0305 C   0  0  0  0  0  0
   -1.1644    0.7041    0.0244 C   0  0  0  0  0  0
   -0.0186   -1.4293    0.0290 O   0  0  0  0  0  0
   -2.3830   -1.3844    0.0383 C   0  0  0  0  0  0
    0.0025    1.4262    0.0166 O   0  0  0  0  0  0
   -2.3623    1.4163    0.0262 C   0  0  0  0  0  0
    1.1482   -0.7072    0.0205 C   0  0  0  0  0  0
   -3.5883   -0.6762    0.0399 C   0  0  0  0  0  0
    1.1585    0.6869    0.0145 C   0  0  0  0  0  0
   -3.5779    0.7260    0.0339 C   0  0  0  0  0  0
    2.3461   -1.4195    0.0180 C   0  0  0  0  0  0
   -5.0579   -1.5879    0.0495 Cl  0  0  0  0  0  0
    2.3668    1.3813    0.0059 C   0  0  0  0  0  0
   -5.0339    1.6594    0.0357 Cl  0  0  0  0  0  0
    3.5617   -0.7292    0.0093 C   0  0  0  0  0  0
    3.5721    0.6731    0.0032 C   0  0  0  0  0  0
    5.0177   -1.6626    0.0063 Cl  0  0  0  0  0  0
    5.0418    1.5847   -0.0077 Cl  0  0  0  0  0  0
   -2.3809   -2.4714    0.0429 H   0  0  0  0  0  0
   -2.3441    2.5031    0.0214 H   0  0  0  0  0  0
    2.3279   -2.5063    0.0227 H   0  0  0  0  0  0
    2.3647    2.4683    0.0012 H   0  0  0  0  0  0
  1  2  2  0  0  0
  1  3  1  0  0  0
  1  4  1  0  0  0
  2  5  1  0  0  0
  2  6  1  0  0  0
  3  7  1  0  0  0
  4  8  2  0  0  0
  4 19  1  0  0  0
  5  9  1  0  0  0
  6 10  2  0  0  0
  6 20  1  0  0  0
  7  9  2  0  0  0
  7 11  1  0  0  0
  8 10  1  0  0  0
  8 12  1  0  0  0
  9 13  1  0  0  0
 10 14  1  0  0  0
 11 15  2  0  0  0
 11 21  1  0  0  0
 13 16  2  0  0  0
 13 22  1  0  0  0
 15 16  1  0  0  0
 15 17  1  0  0  0
 16 18  1  0  0  0
M  END
>  <Name>
tox-603

>  <substance>
2,3,7,8-Tetrachlorodibenzo-p-dioxin

>  <CASRN>
1746-01-6

>  <from_NCI>
1

>  <RBA>
0.000000

>  <method>
MCF-7 cells

>  <chemical_class>
Dioxin

>  <set>
1

$$$$
tox-604
  Cerius2 12190218273D 1   1.00000                          
 Structure written by MMmdl.
 34 37  0  0  0  0  0  0  0  0999 V2000
    4.2082    0.6084   -0.0334 C   0  0  0  0  0  0
    4.8461   -0.7048    0.4012 C   0  0  0  0  0  0
    4.2100   -1.8557   -0.3576 C   0  0  0  0  0  0
    2.7222   -1.9604   -0.0260 C   0  0  0  0  0  0
    1.9698   -0.6373   -0.0372 C   0  0  0  0  0  0
    0.5371   -0.6137   -0.0110 C   0  0  0  0  0  0
   -0.2272   -1.7953    0.0344 C   0  0  0  0  0  0
   -1.6208   -1.7790    0.0511 C   0  0  0  0  0  0
   -2.3201   -0.5756    0.0258 C   0  0  0  0  0  0
   -3.7258   -0.5959    0.0406 C   0  0  0  0  0  0
   -4.4613    0.5851    0.0189 C   0  0  0  0  0  0
   -3.7965    1.8002   -0.0174 C   0  0  0  0  0  0
   -2.3979    1.8299   -0.0320 C   0  0  0  0  0  0
   -1.6091    0.6487   -0.0115 C   0  0  0  0  0  0
   -0.1639    0.6264   -0.0246 C   0  0  0  0  0  0
    0.6159    1.8039   -0.0477 C   0  0  0  0  0  0
    2.0099    1.7794   -0.0434 C   0  0  0  0  0  0
    2.6982    0.5689   -0.0211 C   0  0  0  0  0  0
    4.5341    0.8541   -1.0520 H   0  0  0  0  0  0
    4.5656    1.4060    0.6291 H   0  0  0  0  0  0
    4.7126   -0.8518    1.4803 H   0  0  0  0  0  0
    5.9245   -0.6733    0.2099 H   0  0  0  0  0  0
    4.7095   -2.7985   -0.1075 H   0  0  0  0  0  0
    4.3403   -1.7016   -1.4365 H   0  0  0  0  0  0
    2.6107   -2.4024    0.9722 H   0  0  0  0  0  0
    2.2803   -2.6485   -0.7557 H   0  0  0  0  0  0
    0.2491   -2.7740    0.0645 H   0  0  0  0  0  0
   -2.1512   -2.7307    0.0852 H   0  0  0  0  0  0
   -4.2645   -1.5433    0.0697 H   0  0  0  0  0  0
   -5.5489    0.5534    0.0305 H   0  0  0  0  0  0
   -4.3599    2.7316   -0.0346 H   0  0  0  0  0  0
   -1.9338    2.8137   -0.0611 H   0  0  0  0  0  0
    0.1511    2.7876   -0.0624 H   0  0  0  0  0  0
    2.5544    2.7236   -0.0560 H   0  0  0  0  0  0
  1  2  1  0  0  0
  1 18  1  0  0  0
  1 19  1  0  0  0
  1 20  1  0  0  0
  2  3  1  0  0  0
  2 21  1  0  0  0
  2 22  1  0  0  0
  3  4  1  0  0  0
  3 23  1  0  0  0
  3 24  1  0  0  0
  4  5  1  0  0  0
  4 25  1  0  0  0
  4 26  1  0  0  0
  5  6  2  0  0  0
  5 18  1  0  0  0
  6  7  1  0  0  0
  6 15  1  0  0  0
  7  8  2  0  0  0
  7 27  1  0  0  0
  8  9  1  0  0  0
  8 28  1  0  0  0
  9 10  2  0  0  0
  9 14  1  0  0  0
 10 11  1  0  0  0
 10 29  1  0  0  0
 11 12  2  0  0  0
 11 30  1  0  0  0
 12 13  1  0  0  0
 12 31  1  0  0  0
 13 14  2  0  0  0
 13 32  1  0  0  0
 14 15  1  0  0  0
 15 16  2  0  0  0
 16 17  1  0  0  0
 16 33  1  0  0  0
 17 18  2  0  0  0
 17 34  1  0  0  0
M  END
>  <Name>
tox-604

>  <substance>
Tetrahydrochrysene

>  <CASRN>
104460-72-2

>  <from_NCI>
0

>  <RBA>
3.000000

>  <method>
hERa

>  <chemical_class>
Polychlorinated biphenyl

>  <set>
1

$$$$
tox-607
  Cerius2 12190218273D 1   1.00000                          
 Structure written by MMmdl.
 30 31  0  0  0  0  0  0  0  0999 V2000
    0.5846    1.0231    0.1477 C   0  0  0  0  0  0
   -0.3146    0.6074   -1.0139 C   0  0  0  0  0  0
    0.1534    1.8084    0.9892 O   0  0  0  0  0  0
    1.9934    0.4979    0.1619 C   0  0  0  0  0  0
    0.1383    0.6207   -2.1583 O   0  0  0  0  0  0
   -1.7533    0.2896   -0.7661 C   0  0  0  0  0  0
    3.1194    1.3545    0.3256 C   0  0  0  0  0  0
    2.1463   -0.8891    0.0030 C   0  0  0  0  0  0
   -2.1950   -0.5958    0.2512 C   0  0  0  0  0  0
   -2.6567    0.9153   -1.6419 C   0  0  0  0  0  0
    3.0787    2.6272    0.4407 O   0  0  0  0  0  0
    4.3721    0.6735    0.3272 C   0  0  0  0  0  0
    3.4163   -1.4738    0.0138 C   0  0  0  0  0  0
   -1.4413   -1.2421    1.0545 O   0  0  0  0  0  0
   -3.6113   -0.7486    0.3099 C   0  0  0  0  0  0
   -4.0324    0.7065   -1.5162 C   0  0  0  0  0  0
    4.5843   -0.7222    0.1787 C   0  0  0  0  0  0
   -4.5723   -0.1297   -0.5333 C   0  0  0  0  0  0
    5.7429   -1.2465    0.1921 O   0  0  0  0  0  0
   -5.8230   -0.3240   -0.4080 O   0  0  0  0  0  0
    1.2796   -1.5365   -0.1175 H   0  0  0  0  0  0
   -2.2959    1.5809   -2.4249 H   0  0  0  0  0  0
    5.2711    1.2954    0.4513 H   0  0  0  0  0  0
    3.4768   -2.5584   -0.1089 H   0  0  0  0  0  0
   -4.0023   -1.4224    1.0868 H   0  0  0  0  0  0
   -4.6917    1.2241   -2.2178 H   0  0  0  0  0  0
    3.8684    2.9292    0.5278 H   0  0  0  0  0  0
   -1.9204   -1.7099    1.5781 H   0  0  0  0  0  0
    5.6745   -2.0876    0.0900 H   0  0  0  0  0  0
   -6.2400    0.1263   -0.9961 H   0  0  0  0  0  0
  1  2  1  0  0  0
  1  3  2  0  0  0
  1  4  1  0  0  0
  2  5  2  0  0  0
  2  6  1  0  0  0
  4  7  2  0  0  0
  4  8  1  0  0  0
  6  9  2  0  0  0
  6 10  1  0  0  0
  7 11  1  0  0  0
  7 12  1  0  0  0
  8 13  2  0  0  0
  8 21  1  0  0  0
  9 14  1  0  0  0
  9 15  1  0  0  0
 10 16  2  0  0  0
 10 22  1  0  0  0
 11 27  1  0  0  0
 12 17  2  0  0  0
 12 23  1  0  0  0
 13 17  1  0  0  0
 13 24  1  0  0  0
 14 28  1  0  0  0
 15 18  2  0  0  0
 15 25  1  0  0  0
 16 18  1  0  0  0
 16 26  1  0  0  0
 17 19  1  0  0  0
 18 20  1  0  0  0
 19 29  1  0  0  0
 20 30  1  0  0  0
M  END
>  <Name>
tox-607

>  <substance>
2,2',4,4'-Tetrahydroxybenzil

>  <CASRN>
5394-98-9

>  <from_NCI>
1

>  <RBA>
0.200000

>  <method>
RUC

>  <chemical_class>
Benzophenone

>  <set>
1

$$$$
tox-608
  Cerius2 12190218273D 1   1.00000                          
 Structure written by MMmdl.
 42 43  0  0  0  0  0  0  0  0999 V2000
   -3.8193   -1.4466    1.1149 C   0  0  0  0  0  0
   -3.8693   -2.7925    0.7174 C   0  0  0  0  0  0
   -2.6306   -3.3117    0.3077 C   0  0  0  0  0  0
   -1.4377   -2.5597    0.2991 C   0  0  0  0  0  0
   -1.4076   -1.2202    0.7100 C   0  0  0  0  0  0
   -2.6361   -0.6795    1.1128 C   0  0  0  0  0  0
   -4.9404   -3.4782    0.7244 O   0  0  0  0  0  0
   -0.0937   -0.3828    0.7092 C   0  0  0  0  0  0
    0.1357    0.3711   -0.7092 C   0  0  0  0  0  0
    1.1080   -1.3140    1.0633 C   0  0  0  0  0  0
   -1.0681    1.2995   -1.0640 C   0  0  0  0  0  0
    1.4480    1.2108   -0.7089 C   0  0  0  0  0  0
   -0.1300    0.6311    1.8956 C   0  0  0  0  0  0
    1.4746    2.5523   -0.3042 C   0  0  0  0  0  0
    2.6664    3.3060   -0.3117 C   0  0  0  0  0  0
    3.9075    2.7866   -0.7139 C   0  0  0  0  0  0
    3.8611    1.4388   -1.1052 C   0  0  0  0  0  0
    2.6790    0.6700   -1.1043 C   0  0  0  0  0  0
    0.1755   -0.6421   -1.8960 C   0  0  0  0  0  0
    4.9777    3.4738   -0.7198 O   0  0  0  0  0  0
   -4.7355   -0.9481    1.4452 H   0  0  0  0  0  0
   -2.5666   -4.3511   -0.0279 H   0  0  0  0  0  0
   -0.5392   -3.0638   -0.0513 H   0  0  0  0  0  0
   -2.7204    0.3582    1.4296 H   0  0  0  0  0  0
    2.0211   -0.7422    1.2611 H   0  0  0  0  0  0
    1.3470   -2.0303    0.2733 H   0  0  0  0  0  0
    0.9003   -1.8930    1.9724 H   0  0  0  0  0  0
   -0.8613    1.8793   -1.9727 H   0  0  0  0  0  0
   -1.3093    2.0149   -0.2737 H   0  0  0  0  0  0
   -1.9797    0.7255   -1.2623 H   0  0  0  0  0  0
    0.8434    1.1082    2.0527 H   0  0  0  0  0  0
   -0.3840    0.1250    2.8359 H   0  0  0  0  0  0
   -0.8580    1.4340    1.7554 H   0  0  0  0  0  0
    0.5740    3.0568    0.0402 H   0  0  0  0  0  0
    2.5995    4.3469    0.0186 H   0  0  0  0  0  0
    4.7794    0.9400   -1.4292 H   0  0  0  0  0  0
    2.7659   -0.3690   -1.4159 H   0  0  0  0  0  0
    0.4293   -0.1350   -2.8358 H   0  0  0  0  0  0
   -0.7967   -1.1214   -2.0544 H   0  0  0  0  0  0
    0.9053   -1.4435   -1.7557 H   0  0  0  0  0  0
   -4.7741   -4.2662    0.4525 H   0  0  0  0  0  0
    5.6225    2.9917   -0.9925 H   0  0  0  0  0  0
  1  2  2  0  0  0
  1  6  1  0  0  0
  1 21  1  0  0  0
  2  3  1  0  0  0
  2  7  1  0  0  0
  3  4  2  0  0  0
  3 22  1  0  0  0
  4  5  1  0  0  0
  4 23  1  0  0  0
  5  6  2  0  0  0
  5  8  1  0  0  0
  6 24  1  0  0  0
  7 41  1  0  0  0
  8  9  1  0  0  0
  8 10  1  0  0  0
  8 13  1  0  0  0
  9 11  1  0  0  0
  9 12  1  0  0  0
  9 19  1  0  0  0
 10 25  1  0  0  0
 10 26  1  0  0  0
 10 27  1  0  0  0
 11 28  1  0  0  0
 11 29  1  0  0  0
 11 30  1  0  0  0
 12 14  2  0  0  0
 12 18  1  0  0  0
 13 31  1  0  0  0
 13 32  1  0  0  0
 13 33  1  0  0  0
 14 15  1  0  0  0
 14 34  1  0  0  0
 15 16  2  0  0  0
 15 35  1  0  0  0
 16 17  1  0  0  0
 16 20  1  0  0  0
 17 18  2  0  0  0
 17 36  1  0  0  0
 18 37  1  0  0  0
 19 38  1  0  0  0
 19 39  1  0  0  0
 19 40  1  0  0  0
 20 42  1  0  0  0
M  END
>  <Name>
tox-608

>  <substance>
Tetramethylhexestrol

>  <CASRN>
74385-27-6

>  <from_NCI>
1

>  <RBA>
1.500000

>  <method>
MCF-7 cytosol

>  <chemical_class>
Stilbene

>  <set>
0

$$$$
tox-609
  Cerius2 12190218273D 1   1.00000                          
 Structure written by MMmdl.
 29 31  0  0  0  0  0  0  0  0999 V2000
    0.4611   -0.1133   -0.0636 N   0  0  0  0  0  0
    1.7005   -0.2696    0.6970 C   0  0  0  0  0  0
   -0.4058   -1.1263   -0.3857 C   0  0  0  0  0  0
   -0.0313    1.1083   -0.4493 C   0  0  0  0  0  0
    1.3764   -0.5282    2.1752 C   0  0  0  0  0  0
    2.6288   -1.3513    0.1516 C   0  0  0  0  0  0
   -1.5276   -0.5096   -1.0949 C   0  0  0  0  0  0
   -0.3304   -2.3166   -0.1326 O   0  0  0  0  0  0
   -1.3003    0.8543   -1.1316 C   0  0  0  0  0  0
    0.4479    2.2170   -0.2783 O   0  0  0  0  0  0
    2.3569   -1.1706    2.9027 N   0  0  0  0  0  0
    0.3414   -0.1320    2.7202 O   0  0  0  0  0  0
    3.8918   -1.4005    0.9969 C   0  0  0  0  0  0
   -2.6571   -1.0771   -1.6529 C   0  0  0  0  0  0
   -2.1888    1.7274   -1.7296 C   0  0  0  0  0  0
    3.5719   -1.6374    2.4561 C   0  0  0  0  0  0
   -3.5709   -0.2139   -2.2661 C   0  0  0  0  0  0
   -3.3387    1.1763   -2.3042 C   0  0  0  0  0  0
    4.3788   -2.1712    3.2211 O   0  0  0  0  0  0
    2.2291    0.6928    0.6740 H   0  0  0  0  0  0
    2.8840   -1.1431   -0.8938 H   0  0  0  0  0  0
    2.1475   -2.3356    0.1777 H   0  0  0  0  0  0
    2.1566   -1.3195    3.8834 H   0  0  0  0  0  0
    4.4508   -0.4613    0.9192 H   0  0  0  0  0  0
    4.5376   -2.2128    0.6463 H   0  0  0  0  0  0
   -2.8300   -2.1479   -1.6173 H   0  0  0  0  0  0
   -2.0040    2.7965   -1.7531 H   0  0  0  0  0  0
   -4.4752   -0.6186   -2.7198 H   0  0  0  0  0  0
   -4.0665    1.8280   -2.7870 H   0  0  0  0  0  0
  1  2  1  0  0  0
  1  3  1  0  0  0
  1  4  1  0  0  0
  2  5  1  0  0  0
  2  6  1  0  0  0
  2 20  1  0  0  0
  3  7  1  0  0  0
  3  8  2  0  0  0
  4  9  1  0  0  0
  4 10  2  0  0  0
  5 11  1  0  0  0
  5 12  2  0  0  0
  6 13  1  0  0  0
  6 21  1  0  0  0
  6 22  1  0  0  0
  7  9  2  0  0  0
  7 14  1  0  0  0
  9 15  1  0  0  0
 11 16  1  0  0  0
 11 23  1  0  0  0
 13 16  1  0  0  0
 13 24  1  0  0  0
 13 25  1  0  0  0
 14 17  2  0  0  0
 14 26  1  0  0  0
 15 18  2  0  0  0
 15 27  1  0  0  0
 16 19  2  0  0  0
 17 18  1  0  0  0
 17 28  1  0  0  0
 18 29  1  0  0  0
M  END
>  <Name>
tox-609

>  <substance>
Thalidomide

>  <CASRN>
50-35-1

>  <from_NCI>
1

>  <RBA>
0.000000

>  <method>
RUC

>  <chemical_class>
Phthalimide

>  <set>
2

$$$$
tox-610
  Cerius2 12190218273D 1   1.00000                          
 Structure written by MMmdl.
 57 59  0  0  0  0  0  0  0  0999 V2000
   -2.9241   -0.4817    0.7906 C   0  0  0  0  0  0
   -3.9884    0.3306    0.5399 C   0  0  0  0  0  0
   -1.5453    0.0675    0.8958 C   0  0  0  0  0  0
   -3.1461   -1.9391    0.9666 C   0  0  0  0  0  0
   -3.8291    1.7923    0.3345 C   0  0  0  0  0  0
   -5.4446   -0.1245    0.4860 C   0  0  0  0  0  0
   -0.6261   -0.1310   -0.1417 C   0  0  0  0  0  0
   -1.1364    0.7629    2.0390 C   0  0  0  0  0  0
   -3.2209   -2.4876    2.2539 C   0  0  0  0  0  0
   -3.2731   -2.7811   -0.1465 C   0  0  0  0  0  0
   -3.3094    2.2901   -0.8682 C   0  0  0  0  0  0
   -4.2037    2.6928    1.3407 C   0  0  0  0  0  0
   -5.9717   -0.2219   -0.9438 C   0  0  0  0  0  0
    0.6788    0.3689   -0.0457 C   0  0  0  0  0  0
    0.1659    1.2625    2.1315 C   0  0  0  0  0  0
   -3.4301   -3.8578    2.4242 C   0  0  0  0  0  0
   -3.4825   -4.1506    0.0268 C   0  0  0  0  0  0
   -3.1644    3.6661   -1.0588 C   0  0  0  0  0  0
   -4.0576    4.0683    1.1480 C   0  0  0  0  0  0
   -7.6568   -0.8173   -0.9497 Cl  0  0  0  0  0  0
    1.0796    1.0684    1.0924 C   0  0  0  0  0  0
   -3.5618   -4.6876    1.3112 C   0  0  0  0  0  0
   -3.5382    4.5538   -0.0511 C   0  0  0  0  0  0
    2.3178    1.6064    1.3108 O   0  0  0  0  0  0
    3.3124    1.3848    0.3000 C   0  0  0  0  0  0
    4.6254    2.0336    0.7736 C   0  0  0  0  0  0
    5.7999    1.7441   -0.0799 N   0  0  0  0  0  0
    7.0152    2.2586    0.5691 C   0  0  0  0  0  0
    5.6625    2.3567   -1.4079 C   0  0  0  0  0  0
   -6.0705    0.5697    1.0626 H   0  0  0  0  0  0
   -5.5743   -1.0907    0.9865 H   0  0  0  0  0  0
   -0.9192   -0.6739   -1.0390 H   0  0  0  0  0  0
   -1.8277    0.9223    2.8646 H   0  0  0  0  0  0
   -3.1217   -1.8503    3.1312 H   0  0  0  0  0  0
   -3.2088   -2.3758   -1.1547 H   0  0  0  0  0  0
   -3.0133    1.6098   -1.6648 H   0  0  0  0  0  0
   -4.6046    2.3290    2.2853 H   0  0  0  0  0  0
   -5.3786   -0.9168   -1.5454 H   0  0  0  0  0  0
   -5.9742    0.7525   -1.4412 H   0  0  0  0  0  0
    1.3507    0.1911   -0.8808 H   0  0  0  0  0  0
    0.4652    1.8046    3.0269 H   0  0  0  0  0  0
   -3.4905   -4.2777    3.4266 H   0  0  0  0  0  0
   -3.5827   -4.7992   -0.8416 H   0  0  0  0  0  0
   -2.7583    4.0446   -1.9949 H   0  0  0  0  0  0
   -4.3477    4.7608    1.9360 H   0  0  0  0  0  0
   -3.7246   -5.7557    1.4452 H   0  0  0  0  0  0
   -3.4234    5.6261   -0.2001 H   0  0  0  0  0  0
    2.9851    1.8439   -0.6393 H   0  0  0  0  0  0
    3.4688    0.3079    0.1635 H   0  0  0  0  0  0
    4.8213    1.6585    1.7876 H   0  0  0  0  0  0
    4.4746    3.1164    0.8846 H   0  0  0  0  0  0
    7.9005    2.0216   -0.0316 H   0  0  0  0  0  0
    7.1619    1.7795    1.5436 H   0  0  0  0  0  0
    6.9769    3.3439    0.7177 H   0  0  0  0  0  0
    6.5592    2.1698   -2.0102 H   0  0  0  0  0  0
    5.5071    3.4400   -1.3499 H   0  0  0  0  0  0
    4.8289    1.9123   -1.9607 H   0  0  0  0  0  0
  1  2  2  0  0  0
  1  3  1  0  0  0
  1  4  1  0  0  0
  2  5  1  0  0  0
  2  6  1  0  0  0
  3  7  2  0  0  0
  3  8  1  0  0  0
  4  9  2  0  0  0
  4 10  1  0  0  0
  5 11  2  0  0  0
  5 12  1  0  0  0
  6 13  1  0  0  0
  6 30  1  0  0  0
  6 31  1  0  0  0
  7 14  1  0  0  0
  7 32  1  0  0  0
  8 15  2  0  0  0
  8 33  1  0  0  0
  9 16  1  0  0  0
  9 34  1  0  0  0
 10 17  2  0  0  0
 10 35  1  0  0  0
 11 18  1  0  0  0
 11 36  1  0  0  0
 12 19  2  0  0  0
 12 37  1  0  0  0
 13 20  1  0  0  0
 13 38  1  0  0  0
 13 39  1  0  0  0
 14 21  2  0  0  0
 14 40  1  0  0  0
 15 21  1  0  0  0
 15 41  1  0  0  0
 16 22  2  0  0  0
 16 42  1  0  0  0
 17 22  1  0  0  0
 17 43  1  0  0  0
 18 23  2  0  0  0
 18 44  1  0  0  0
 19 23  1  0  0  0
 19 45  1  0  0  0
 21 24  1  0  0  0
 22 46  1  0  0  0
 23 47  1  0  0  0
 24 25  1  0  0  0
 25 26  1  0  0  0
 25 48  1  0  0  0
 25 49  1  0  0  0
 26 27  1  0  0  0
 26 50  1  0  0  0
 26 51  1  0  0  0
 27 28  1  0  0  0
 27 29  1  0  0  0
 28 52  1  0  0  0
 28 53  1  0  0  0
 28 54  1  0  0  0
 29 55  1  0  0  0
 29 56  1  0  0  0
 29 57  1  0  0  0
M  END
>  <Name>
tox-610

>  <substance>
Toremifene citrate

>  <CASRN>
89778-27-8

>  <from_NCI>
1

>  <RBA>
1.400000

>  <method>
RUC

>  <chemical_class>
Triphenylethylene

>  <set>
0

$$$$
tox-611
  Cerius2 12190218273D 1   1.00000                          
 Structure written by MMmdl.
 56 57  0  0  0  0  0  0  0  0999 V2000
   -3.2774    0.1520    1.7365 C   0  0  0  0  0  0
   -1.9271    0.2793    2.1158 C   0  0  0  0  0  0
   -1.4460    1.5819    2.3895 C   0  0  0  0  0  0
   -2.3009    2.6924    2.2917 C   0  0  0  0  0  0
   -3.6326    2.5267    1.9137 C   0  0  0  0  0  0
   -4.1227    1.2560    1.6338 C   0  0  0  0  0  0
   -3.7765   -1.0945    1.4663 O   0  0  0  0  0  0
   -1.0703   -0.9683    2.2064 C   0  0  0  0  0  0
   -0.5545   -1.4243    0.8364 C   0  0  0  0  0  0
    0.3613   -2.6432    0.9677 C   0  0  0  0  0  0
    0.8980   -3.0876   -0.3943 C   0  0  0  0  0  0
    1.8204   -4.3003   -0.2592 C   0  0  0  0  0  0
    2.3692   -4.7381   -1.6180 C   0  0  0  0  0  0
    3.3053   -5.9398   -1.4788 C   0  0  0  0  0  0
    3.8560   -6.3760   -2.8361 C   0  0  0  0  0  0
    4.7931   -7.5652   -2.6997 C   0  0  0  0  0  0
    0.2505    1.8596    2.8845 S   0  0  0  0  0  0
    1.1107    1.2605    1.8706 O   0  0  0  0  0  0
    0.3585    1.3949    4.2636 O   0  0  0  0  0  0
    0.6277    3.6014    2.8786 C   0  0  0  0  0  0
    0.9368    4.2304    1.6687 C   0  0  0  0  0  0
    1.2548    5.5898    1.6602 C   0  0  0  0  0  0
    1.2655    6.3247    2.8536 C   0  0  0  0  0  0
    1.6426    7.7783    2.8454 C   0  0  0  0  0  0
    0.9788    5.6755    4.0621 C   0  0  0  0  0  0
    0.6591    4.3161    4.0788 C   0  0  0  0  0  0
   -1.9611    3.7010    2.5125 H   0  0  0  0  0  0
   -4.2897    3.3916    1.8407 H   0  0  0  0  0  0
   -5.1648    1.1426    1.3421 H   0  0  0  0  0  0
   -4.7245   -1.0106    1.2314 H   0  0  0  0  0  0
   -1.6575   -1.7740    2.6672 H   0  0  0  0  0  0
   -0.2337   -0.8211    2.8956 H   0  0  0  0  0  0
   -0.0102   -0.6081    0.3470 H   0  0  0  0  0  0
   -1.3976   -1.6714    0.1798 H   0  0  0  0  0  0
   -0.1914   -3.4687    1.4326 H   0  0  0  0  0  0
    1.2007   -2.4013    1.6310 H   0  0  0  0  0  0
    1.4459   -2.2596   -0.8607 H   0  0  0  0  0  0
    0.0600   -3.3353   -1.0570 H   0  0  0  0  0  0
    1.2701   -5.1307    0.2000 H   0  0  0  0  0  0
    2.6533   -4.0547    0.4109 H   0  0  0  0  0  0
    2.9099   -3.9041   -2.0818 H   0  0  0  0  0  0
    1.5372   -4.9952   -2.2849 H   0  0  0  0  0  0
    2.7659   -6.7749   -1.0154 H   0  0  0  0  0  0
    4.1367   -5.6825   -0.8112 H   0  0  0  0  0  0
    4.3968   -5.5449   -3.3036 H   0  0  0  0  0  0
    3.0295   -6.6432   -3.5050 H   0  0  0  0  0  0
    5.1778   -7.8593   -3.6812 H   0  0  0  0  0  0
    4.2742   -8.4264   -2.2668 H   0  0  0  0  0  0
    5.6466   -7.3207   -2.0594 H   0  0  0  0  0  0
    0.9315    3.6756    0.7325 H   0  0  0  0  0  0
    1.4957    6.0733    0.7139 H   0  0  0  0  0  0
    1.3578    8.2501    1.8992 H   0  0  0  0  0  0
    2.7229    7.8850    2.9828 H   0  0  0  0  0  0
    1.1270    8.3194    3.6458 H   0  0  0  0  0  0
    1.0041    6.2268    5.0019 H   0  0  0  0  0  0
    0.4371    3.8323    5.0276 H   0  0  0  0  0  0
  1  2  2  0  0  0
  1  6  1  0  0  0
  1  7  1  0  0  0
  2  3  1  0  0  0
  2  8  1  0  0  0
  3  4  2  0  0  0
  3 17  1  0  0  0
  4  5  1  0  0  0
  4 27  1  0  0  0
  5  6  2  0  0  0
  5 28  1  0  0  0
  6 29  1  0  0  0
  7 30  1  0  0  0
  8  9  1  0  0  0
  8 31  1  0  0  0
  8 32  1  0  0  0
  9 10  1  0  0  0
  9 33  1  0  0  0
  9 34  1  0  0  0
 10 11  1  0  0  0
 10 35  1  0  0  0
 10 36  1  0  0  0
 11 12  1  0  0  0
 11 37  1  0  0  0
 11 38  1  0  0  0
 12 13  1  0  0  0
 12 39  1  0  0  0
 12 40  1  0  0  0
 13 14  1  0  0  0
 13 41  1  0  0  0
 13 42  1  0  0  0
 14 15  1  0  0  0
 14 43  1  0  0  0
 14 44  1  0  0  0
 15 16  1  0  0  0
 15 45  1  0  0  0
 15 46  1  0  0  0
 16 47  1  0  0  0
 16 48  1  0  0  0
 16 49  1  0  0  0
 17 18  2  0  0  0
 17 19  2  0  0  0
 17 20  1  0  0  0
 20 21  2  0  0  0
 20 26  1  0  0  0
 21 22  1  0  0  0
 21 50  1  0  0  0
 22 23  2  0  0  0
 22 51  1  0  0  0
 23 24  1  0  0  0
 23 25  1  0  0  0
 24 52  1  0  0  0
 24 53  1  0  0  0
 24 54  1  0  0  0
 25 26  2  0  0  0
 25 55  1  0  0  0
 26 56  1  0  0  0
M  END
>  <Name>
tox-611

>  <substance>
Tosyl nonylphenol (mixed branched isomers)

>  <CASRN>


>  <from_NCI>
0

>  <RBA>
0.006000

>  <method>
RUC

>  <chemical_class>
Phenol; Alkylphenol

>  <set>
2

$$$$
tox-612
  Cerius2 12190218273D 1   1.00000                          
 Structure written by MMmdl.
 26 27  0  0  0  0  0  0  0  0999 V2000
   -1.2131   -0.0952   -0.4800 C   0  0  0  0  0  0
    0.2973   -0.5042   -0.5245 C   0  0  0  0  0  0
   -1.1508    1.4292   -0.6668 C   0  0  0  0  0  0
   -1.7937   -0.1595    0.9509 C   0  0  0  0  0  0
    0.8977    0.6964    0.2046 C   0  0  0  0  0  0
    0.7970   -0.6023   -1.9774 C   0  0  0  0  0  0
    0.5902   -1.8338    0.1839 C   0  0  0  0  0  0
   -0.2449    1.6382    0.5449 C   0  0  0  0  0  0
   -1.0685    0.9921    1.6715 C   0  0  0  0  0  0
    2.1901    0.9218    0.4720 C   0  0  0  0  0  0
   -1.8327   -0.6174   -1.2137 H   0  0  0  0  0  0
   -2.1279    1.9142   -0.5589 H   0  0  0  0  0  0
   -0.7040    1.7509   -1.6121 H   0  0  0  0  0  0
   -1.6541   -1.1226    1.4472 H   0  0  0  0  0  0
   -2.8721    0.0402    0.9300 H   0  0  0  0  0  0
    1.8588   -0.8731   -2.0144 H   0  0  0  0  0  0
    0.6903    0.3377   -2.5278 H   0  0  0  0  0  0
    0.2406   -1.3711   -2.5255 H   0  0  0  0  0  0
    1.6295   -2.1458    0.0262 H   0  0  0  0  0  0
   -0.0566   -2.6299   -0.2007 H   0  0  0  0  0  0
    0.4479   -1.7725    1.2679 H   0  0  0  0  0  0
    0.0515    2.6715    0.7348 H   0  0  0  0  0  0
   -0.4458    0.6293    2.4963 H   0  0  0  0  0  0
   -1.7996    1.6990    2.0795 H   0  0  0  0  0  0
    2.5126    1.8231    0.9865 H   0  0  0  0  0  0
    2.9619    0.2125    0.1862 H   0  0  0  0  0  0
  1  2  1  0  0  0
  1  3  1  0  0  0
  1  4  1  0  0  0
  1 11  1  0  0  0
  2  5  1  0  0  0
  2  6  1  0  0  0
  2  7  1  0  0  0
  3  8  1  0  0  0
  3 12  1  0  0  0
  3 13  1  0  0  0
  4  9  1  0  0  0
  4 14  1  0  0  0
  4 15  1  0  0  0
  5  8  1  0  0  0
  5 10  2  0  0  0
  6 16  1  0  0  0
  6 17  1  0  0  0
  6 18  1  0  0  0
  7 19  1  0  0  0
  7 20  1  0  0  0
  7 21  1  0  0  0
  8  9  1  0  0  0
  8 22  1  0  0  0
  9 23  1  0  0  0
  9 24  1  0  0  0
 10 25  1  0  0  0
 10 26  1  0  0  0
M  END
>  <Name>
tox-612

>  <substance>
Toxaphene

>  <CASRN>
8001-35-2

>  <from_NCI>
1

>  <RBA>
0.000100

>  <method>
hERa,MCF-7 cytosol,MUC

>  <chemical_class>
Organochlorine

>  <set>
1

$$$$
tox-613
  Cerius2 12190218273D 1   1.00000                          
 Structure written by MMmdl.
 39 42  0  0  0  0  0  0  0  0999 V2000
    2.0239    1.3029    1.5758 N   0  0  0  0  0  0
    2.5116    0.0493    1.4852 N   0  0  0  0  0  0
    1.5870   -0.6182    0.7730 C   0  0  0  0  0  0
    0.5119    0.2505    0.3938 C   0  0  0  0  0  0
    0.8276    1.4925    0.9297 C   0  0  0  0  0  0
    1.7605   -2.0456    0.4879 C   0  0  0  0  0  0
   -0.6775   -0.0259   -0.3964 C   0  0  0  0  0  0
    0.1773    2.8027    0.8779 C   0  0  0  0  0  0
    0.6920   -2.9444    0.6148 C   0  0  0  0  0  0
    0.8699   -4.3026    0.3367 C   0  0  0  0  0  0
    2.1174   -4.7764   -0.0653 C   0  0  0  0  0  0
    3.1899   -3.8952   -0.1864 C   0  0  0  0  0  0
    3.0136   -2.5371    0.0914 C   0  0  0  0  0  0
   -1.9546    0.1620    0.1482 C   0  0  0  0  0  0
   -3.0925   -0.1165   -0.6123 C   0  0  0  0  0  0
   -2.9617   -0.5858   -1.9186 C   0  0  0  0  0  0
   -1.6943   -0.7776   -2.4668 C   0  0  0  0  0  0
   -0.5546   -0.4996   -1.7089 C   0  0  0  0  0  0
    0.0002    3.5563    2.0470 C   0  0  0  0  0  0
   -0.6159    4.8099    1.9996 C   0  0  0  0  0  0
   -1.0592    5.3246    0.7833 C   0  0  0  0  0  0
   -0.8869    4.5872   -0.3860 C   0  0  0  0  0  0
   -0.2710    3.3335   -0.3390 C   0  0  0  0  0  0
    2.5642    2.0030    2.0780 H   0  0  0  0  0  0
   -0.2888   -2.6023    0.9402 H   0  0  0  0  0  0
    0.0328   -4.9913    0.4373 H   0  0  0  0  0  0
    2.2545   -5.8346   -0.2814 H   0  0  0  0  0  0
    4.1659   -4.2639   -0.4971 H   0  0  0  0  0  0
    3.8620   -1.8615   -0.0093 H   0  0  0  0  0  0
   -2.0743    0.5232    1.1683 H   0  0  0  0  0  0
   -4.0819    0.0323   -0.1837 H   0  0  0  0  0  0
   -3.8493   -0.8027   -2.5104 H   0  0  0  0  0  0
   -1.5922   -1.1442   -3.4867 H   0  0  0  0  0  0
    0.4271   -0.6527   -2.1543 H   0  0  0  0  0  0
    0.3284    3.1718    3.0117 H   0  0  0  0  0  0
   -0.7510    5.3834    2.9150 H   0  0  0  0  0  0
   -1.5391    6.3010    0.7465 H   0  0  0  0  0  0
   -1.2303    4.9876   -1.3382 H   0  0  0  0  0  0
   -0.1389    2.7800   -1.2673 H   0  0  0  0  0  0
  1  2  1  0  0  0
  1  5  1  0  0  0
  1 24  1  0  0  0
  2  3  2  0  0  0
  3  4  1  0  0  0
  3  6  1  0  0  0
  4  5  2  0  0  0
  4  7  1  0  0  0
  5  8  1  0  0  0
  6  9  2  0  0  0
  6 13  1  0  0  0
  7 14  2  0  0  0
  7 18  1  0  0  0
  8 19  2  0  0  0
  8 23  1  0  0  0
  9 10  1  0  0  0
  9 25  1  0  0  0
 10 11  2  0  0  0
 10 26  1  0  0  0
 11 12  1  0  0  0
 11 27  1  0  0  0
 12 13  2  0  0  0
 12 28  1  0  0  0
 13 29  1  0  0  0
 14 15  1  0  0  0
 14 30  1  0  0  0
 15 16  2  0  0  0
 15 31  1  0  0  0
 16 17  1  0  0  0
 16 32  1  0  0  0
 17 18  2  0  0  0
 17 33  1  0  0  0
 18 34  1  0  0  0
 19 20  1  0  0  0
 19 35  1  0  0  0
 20 21  2  0  0  0
 20 36  1  0  0  0
 21 22  1  0  0  0
 21 37  1  0  0  0
 22 23  2  0  0  0
 22 38  1  0  0  0
 23 39  1  0  0  0
M  END
>  <Name>
tox-613

>  <substance>
Triaryl-pyrazole

>  <CASRN>


>  <from_NCI>
0

>  <RBA>
60.000000

>  <method>
hERa

>  <chemical_class>


>  <set>
2

$$$$
tox-614
  Cerius2 12190218273D 1   1.00000                          
 Structure written by MMmdl.
 22 23  0  0  0  0  0  0  0  0999 V2000
    0.7368    0.0090   -0.0317 C   0  0  0  0  0  0
   -0.7354   -0.0193   -0.0171 C   0  0  0  0  0  0
    1.4735    0.8703   -0.8686 C   0  0  0  0  0  0
    1.4463   -0.8556    0.8237 C   0  0  0  0  0  0
   -1.4908   -0.7955   -0.9170 C   0  0  0  0  0  0
   -1.4274    0.7525    0.9347 C   0  0  0  0  0  0
    2.8725    0.8602   -0.8514 C   0  0  0  0  0  0
    0.6930    1.9781   -1.9463 Cl  0  0  0  0  0  0
    2.8416   -0.8607    0.8349 C   0  0  0  0  0  0
   -2.8889   -0.7914   -0.8664 C   0  0  0  0  0  0
   -0.7337   -1.7913   -2.1150 Cl  0  0  0  0  0  0
   -2.8236    0.7548    0.9832 C   0  0  0  0  0  0
    3.5573   -0.0070    0.0007 C   0  0  0  0  0  0
    3.6837   -1.9310    1.8876 Cl  0  0  0  0  0  0
   -3.5536   -0.0159    0.0827 C   0  0  0  0  0  0
    0.9018   -1.5309    1.4818 H   0  0  0  0  0  0
   -0.8760    1.3643    1.6486 H   0  0  0  0  0  0
    3.4379    1.5265   -1.4995 H   0  0  0  0  0  0
   -3.4685   -1.3924   -1.5639 H   0  0  0  0  0  0
   -3.3401    1.3605    1.7261 H   0  0  0  0  0  0
    4.6448   -0.0075    0.0063 H   0  0  0  0  0  0
   -4.6415   -0.0146    0.1201 H   0  0  0  0  0  0
  1  2  1  0  0  0
  1  3  2  0  0  0
  1  4  1  0  0  0
  2  5  2  0  0  0
  2  6  1  0  0  0
  3  7  1  0  0  0
  3  8  1  0  0  0
  4  9  2  0  0  0
  4 16  1  0  0  0
  5 10  1  0  0  0
  5 11  1  0  0  0
  6 12  2  0  0  0
  6 17  1  0  0  0
  7 13  2  0  0  0
  7 18  1  0  0  0
  9 13  1  0  0  0
  9 14  1  0  0  0
 10 15  2  0  0  0
 10 19  1  0  0  0
 12 15  1  0  0  0
 12 20  1  0  0  0
 13 21  1  0  0  0
 15 22  1  0  0  0
M  END
>  <Name>
tox-614

>  <substance>
2,2',5-Trichlorobiphenyl

>  <CASRN>
37680-65-2

>  <from_NCI>
1

>  <RBA>
0.000000

>  <method>
GST-hERadef

>  <chemical_class>
Polychlorinated biphenyl

>  <set>
0

$$$$
tox-615
  Cerius2 12190218273D 1   1.00000                          
 Structure written by MMmdl.
 22 23  0  0  0  0  0  0  0  0999 V2000
    0.4140    0.0001    0.0003 C   0  0  0  0  0  0
   -1.0593    0.0000   -0.0106 C   0  0  0  0  0  0
    1.1542    0.9333   -0.7568 C   0  0  0  0  0  0
    1.1429   -0.9332    0.7683 C   0  0  0  0  0  0
   -1.7838    0.7644    0.9183 C   0  0  0  0  0  0
   -1.7699   -0.7643   -0.9502 C   0  0  0  0  0  0
    2.5530    0.9342   -0.7472 C   0  0  0  0  0  0
    0.3753    2.1312   -1.7414 Cl  0  0  0  0  0  0
    2.5417   -0.9341    0.7794 C   0  0  0  0  0  0
    0.3495   -2.1310    1.7414 Cl  0  0  0  0  0  0
   -3.1806    0.7640    0.9073 C   0  0  0  0  0  0
   -3.1667   -0.7639   -0.9601 C   0  0  0  0  0  0
    3.2374    0.0000    0.0212 C   0  0  0  0  0  0
   -3.8708    0.0001   -0.0316 C   0  0  0  0  0  0
    4.9590    0.0000    0.0339 Cl  0  0  0  0  0  0
   -1.2613    1.3678    1.6597 H   0  0  0  0  0  0
   -1.2364   -1.3677   -1.6838 H   0  0  0  0  0  0
    3.1038    1.6619   -1.3378 H   0  0  0  0  0  0
    3.0837   -1.6619    1.3781 H   0  0  0  0  0  0
   -3.7296    1.3611    1.6332 H   0  0  0  0  0  0
   -3.7048   -1.3610   -1.6940 H   0  0  0  0  0  0
   -4.9594    0.0002   -0.0398 H   0  0  0  0  0  0
  1  2  1  0  0  0
  1  3  2  0  0  0
  1  4  1  0  0  0
  2  5  2  0  0  0
  2  6  1  0  0  0
  3  7  1  0  0  0
  3  8  1  0  0  0
  4  9  2  0  0  0
  4 10  1  0  0  0
  5 11  1  0  0  0
  5 16  1  0  0  0
  6 12  2  0  0  0
  6 17  1  0  0  0
  7 13  2  0  0  0
  7 18  1  0  0  0
  9 13  1  0  0  0
  9 19  1  0  0  0
 11 14  2  0  0  0
 11 20  1  0  0  0
 12 14  1  0  0  0
 12 21  1  0  0  0
 13 15  1  0  0  0
 14 22  1  0  0  0
M  END
>  <Name>
tox-615

>  <substance>
2,4,6-Trichlorobiphenyl

>  <CASRN>
35693-92-6

>  <from_NCI>
1

>  <RBA>
0.000000

>  <method>
hERa

>  <chemical_class>
Polychlorinated biphenyl

>  <set>
0

$$$$
tox-616
  Cerius2 12190218273D 1   1.00000                          
 Structure written by MMmdl.
 23 24  0  0  0  0  0  0  0  0999 V2000
   -2.7820   -0.6327    0.7843 C   0  0  0  0  0  0
   -2.9139   -1.7885    0.0244 C   0  0  0  0  0  0
   -1.8530   -2.2493   -0.7454 C   0  0  0  0  0  0
   -0.6443   -1.5446   -0.7548 C   0  0  0  0  0  0
   -0.4723   -0.3664    0.0043 C   0  0  0  0  0  0
   -1.5726    0.0709    0.7738 C   0  0  0  0  0  0
   -1.4940    1.5029    1.7509 Cl  0  0  0  0  0  0
   -4.4016   -2.6550    0.0368 Cl  0  0  0  0  0  0
    0.6280   -2.1899   -1.7431 Cl  0  0  0  0  0  0
    0.8012    0.3751   -0.0061 C   0  0  0  0  0  0
    1.8133    0.0888    0.9130 C   0  0  0  0  0  0
    3.0257    0.8026    0.8946 C   0  0  0  0  0  0
    3.3020    1.8311   -0.0264 C   0  0  0  0  0  0
    2.2600    2.0921   -0.9367 C   0  0  0  0  0  0
    1.0406    1.3902   -0.9353 C   0  0  0  0  0  0
    4.4011    2.4710   -0.0354 O   0  0  0  0  0  0
   -3.6162   -0.2778    1.3843 H   0  0  0  0  0  0
   -1.9632   -3.1544   -1.3376 H   0  0  0  0  0  0
    1.6761   -0.6938    1.6582 H   0  0  0  0  0  0
    3.7778    0.5301    1.6407 H   0  0  0  0  0  0
    2.3852    2.8753   -1.6900 H   0  0  0  0  0  0
    0.2833    1.6520   -1.6732 H   0  0  0  0  0  0
    4.3867    3.0501   -0.6574 H   0  0  0  0  0  0
  1  2  2  0  0  0
  1  6  1  0  0  0
  1 17  1  0  0  0
  2  3  1  0  0  0
  2  8  1  0  0  0
  3  4  2  0  0  0
  3 18  1  0  0  0
  4  5  1  0  0  0
  4  9  1  0  0  0
  5  6  2  0  0  0
  5 10  1  0  0  0
  6  7  1  0  0  0
 10 11  2  0  0  0
 10 15  1  0  0  0
 11 12  1  0  0  0
 11 19  1  0  0  0
 12 13  2  0  0  0
 12 20  1  0  0  0
 13 14  1  0  0  0
 13 16  1  0  0  0
 14 15  2  0  0  0
 14 21  1  0  0  0
 15 22  1  0  0  0
 16 23  1  0  0  0
M  END
>  <Name>
tox-616

>  <substance>
2',4',6'-Trichloro-4-biphenylol

>  <CASRN>
14962-28-8

>  <from_NCI>
1

>  <RBA>
2.900000

>  <method>
hERa,hERa,MCF-7 cytosol,MUC,MUC,MUC

>  <chemical_class>
Polychlorinated biphenyl

>  <set>
0

$$$$
tox-617
  Cerius2 12190218273D 1   1.00000                          
 Structure written by MMmdl.
 23 24  0  0  0  0  0  0  0  0999 V2000
   -0.7731   -0.0223   -0.3635 C   0  0  0  0  0  0
   -1.4929   -1.1197   -0.8686 C   0  0  0  0  0  0
   -2.8913   -1.1319   -0.8531 C   0  0  0  0  0  0
   -3.5951   -0.0450   -0.3305 C   0  0  0  0  0  0
   -2.9037    1.0522    0.1752 C   0  0  0  0  0  0
   -1.5045    1.0603    0.1570 C   0  0  0  0  0  0
    0.7013   -0.0072   -0.3796 C   0  0  0  0  0  0
    1.4107    1.0997   -0.8786 C   0  0  0  0  0  0
    2.8113    1.1170   -0.8957 C   0  0  0  0  0  0
    3.5292    0.0208   -0.4104 C   0  0  0  0  0  0
    2.8422   -1.0861    0.0885 C   0  0  0  0  0  0
    1.4434   -1.0983    0.1027 C   0  0  0  0  0  0
   -4.9636   -0.0525   -0.3127 O   0  0  0  0  0  0
    3.5924    2.5233   -1.5323 Cl  0  0  0  0  0  0
   -3.7144   -2.5099   -1.4921 Cl  0  0  0  0  0  0
    5.2571   -0.0260   -0.3999 Cl  0  0  0  0  0  0
   -0.9595   -1.9708   -1.2888 H   0  0  0  0  0  0
   -3.4312    1.9087    0.5891 H   0  0  0  0  0  0
   -0.9863    1.9268    0.5683 H   0  0  0  0  0  0
    0.8656    1.9577   -1.2700 H   0  0  0  0  0  0
    3.3848   -1.9475    0.4724 H   0  0  0  0  0  0
    0.9362   -1.9737    0.5085 H   0  0  0  0  0  0
   -5.2759    0.7865    0.0868 H   0  0  0  0  0  0
  1  2  2  0  0  0
  1  6  1  0  0  0
  1  7  1  0  0  0
  2  3  1  0  0  0
  2 17  1  0  0  0
  3  4  2  0  0  0
  3 15  1  0  0  0
  4  5  1  0  0  0
  4 13  1  0  0  0
  5  6  2  0  0  0
  5 18  1  0  0  0
  6 19  1  0  0  0
  7  8  2  0  0  0
  7 12  1  0  0  0
  8  9  1  0  0  0
  8 20  1  0  0  0
  9 10  2  0  0  0
  9 14  1  0  0  0
 10 11  1  0  0  0
 10 16  1  0  0  0
 11 12  2  0  0  0
 11 21  1  0  0  0
 12 22  1  0  0  0
 13 23  1  0  0  0
M  END
>  <Name>
tox-617

>  <substance>
3,3',4'-Trichloro-4-biphenylol

>  <CASRN>
124882-64-0

>  <from_NCI>
0

>  <RBA>
0.300000

>  <method>
MCF-7 cytosol

>  <chemical_class>
Polychlorinated biphenyl

>  <set>
1

$$$$
tox-618
  Cerius2 12190218273D 1   1.00000                          
 Structure written by MMmdl.
 23 24  0  0  0  0  0  0  0  0999 V2000
    5.0971   -0.1350    0.0366 Cl  0  0  0  0  0  0
    3.3764   -0.1091    0.0236 C   0  0  0  0  0  0
    2.7030    0.9802   -0.5203 C   0  0  0  0  0  0
    1.3037    0.9995   -0.5297 C   0  0  0  0  0  0
    0.5561   -0.0667    0.0021 C   0  0  0  0  0  0
   -0.9181   -0.0445   -0.0093 C   0  0  0  0  0  0
   -1.6357    1.0734    0.4201 C   0  0  0  0  0  0
   -3.0459    1.0918    0.4084 C   0  0  0  0  0  0
   -3.7724    2.5763    0.9854 Cl  0  0  0  0  0  0
   -3.8529   -0.0005   -0.0324 C   0  0  0  0  0  0
   -5.1393    0.0188   -0.0426 O   0  0  0  0  0  0
   -3.0722   -1.1165   -0.4607 C   0  0  0  0  0  0
   -1.6621   -1.1406   -0.4501 C   0  0  0  0  0  0
   -3.8338   -2.5787   -1.0495 Cl  0  0  0  0  0  0
    1.2631   -1.1547    0.5452 C   0  0  0  0  0  0
    2.6623   -1.1774    0.5570 C   0  0  0  0  0  0
    3.2531    1.8184   -0.9415 H   0  0  0  0  0  0
    0.8000    1.8594   -0.9709 H   0  0  0  0  0  0
   -1.1000    1.9497    0.7838 H   0  0  0  0  0  0
   -1.1472   -2.0326   -0.8055 H   0  0  0  0  0  0
    0.7272   -1.9989    0.9786 H   0  0  0  0  0  0
    3.1805   -2.0317    0.9864 H   0  0  0  0  0  0
   -5.4315   -0.7226   -0.3383 H   0  0  0  0  0  0
  1  2  1  0  0  0
  2  3  2  0  0  0
  2 16  1  0  0  0
  3  4  1  0  0  0
  3 17  1  0  0  0
  4  5  2  0  0  0
  4 18  1  0  0  0
  5  6  1  0  0  0
  5 15  1  0  0  0
  6  7  2  0  0  0
  6 13  1  0  0  0
  7  8  1  0  0  0
  7 19  1  0  0  0
  8  9  1  0  0  0
  8 10  2  0  0  0
 10 11  1  0  0  0
 10 12  1  0  0  0
 11 23  1  0  0  0
 12 13  2  0  0  0
 12 14  1  0  0  0
 13 20  1  0  0  0
 15 16  2  0  0  0
 15 21  1  0  0  0
 16 22  1  0  0  0
M  END
>  <Name>
tox-618

>  <substance>
3,4',5-Trichloro-4-biphenylol

>  <CASRN>
4400-06-0

>  <from_NCI>
1

>  <RBA>
0.100000

>  <method>
MUC

>  <chemical_class>
Polychlorinated biphenyl

>  <set>
0

$$$$
tox-619
  Cerius2 12190218273D 1   1.00000                          
 Structure written by MMmdl.
 19 19  0  0  0  0  0  0  0  0999 V2000
   -0.0445    0.2723    0.5034 C   0  0  0  0  0  0
   -0.3061   -1.0864    0.7137 C   0  0  0  0  0  0
   -1.0723    1.1239    0.0900 C   0  0  0  0  0  0
    1.1981    0.7802    0.7898 O   0  0  0  0  0  0
   -1.5823   -1.6006    0.4768 C   0  0  0  0  0  0
    0.9308   -2.1621    1.2574 Cl  0  0  0  0  0  0
   -2.3514    0.6109   -0.1500 C   0  0  0  0  0  0
    1.8614    1.2610   -0.3975 C   0  0  0  0  0  0
   -2.6049   -0.7538    0.0412 C   0  0  0  0  0  0
   -3.5778    1.7122   -0.6742 Cl  0  0  0  0  0  0
    3.2831    1.6940   -0.0220 C   0  0  0  0  0  0
   -4.1638   -1.4508   -0.2363 Cl  0  0  0  0  0  0
    3.4026    2.7601    0.6521 O   0  0  0  0  0  0
    4.2360    0.9649   -0.4267 O   0  0  0  0  0  0
   -0.8834    2.1880   -0.0308 H   0  0  0  0  0  0
   -1.7796   -2.6580    0.6350 H   0  0  0  0  0  0
    1.3381    2.1302   -0.8123 H   0  0  0  0  0  0
    1.9038    0.4674   -1.1537 H   0  0  0  0  0  0
    4.2256    2.9078    0.8052 H   0  0  0  0  0  0
  1  2  2  0  0  0
  1  3  1  0  0  0
  1  4  1  0  0  0
  2  5  1  0  0  0
  2  6  1  0  0  0
  3  7  2  0  0  0
  3 15  1  0  0  0
  4  8  1  0  0  0
  5  9  2  0  0  0
  5 16  1  0  0  0
  7  9  1  0  0  0
  7 10  1  0  0  0
  8 11  1  0  0  0
  8 17  1  0  0  0
  8 18  1  0  0  0
  9 12  1  0  0  0
 11 13  1  0  0  0
 11 14  2  0  0  0
 13 19  1  0  0  0
M  END
>  <Name>
tox-619

>  <substance>
2,4,5-Trichlorophenoxyacetic acid

>  <CASRN>
93-76-5

>  <from_NCI>
1

>  <RBA>
0.000000

>  <method>
RUC

>  <chemical_class>
Chlorinated aromatic hydrocarbon;Organochlorine

>  <set>
0

$$$$
tox-620
  Cerius2 12190218273D 1   1.00000                          
 Structure written by MMmdl.
 62 65  0  0  0  0  0  0  0  0999 V2000
   -3.0117    6.4457    0.7109 C   0  0  0  0  0  0
   -3.1316    5.1233    1.1693 C   0  0  0  0  0  0
   -2.0968    4.1976    0.9713 C   0  0  0  0  0  0
   -1.8480    6.8492    0.0480 C   0  0  0  0  0  0
   -0.8337    5.9226   -0.1422 C   0  0  0  0  0  0
   -0.9504    4.6060    0.3082 C   0  0  0  0  0  0
    0.2728    3.8550   -0.0226 C   0  0  0  0  0  0
    1.0892    4.7213   -0.6741 C   0  0  0  0  0  0
    0.4954    6.1148   -0.7997 C   0  0  0  0  0  0
   -3.9536    7.4289    0.8538 O   0  0  0  0  0  0
   -5.1593    7.0711    1.5276 C   0  0  0  0  0  0
    2.4228    4.4645   -1.2376 C   0  0  0  0  0  0
    2.6328    3.4094   -2.1363 C   0  0  0  0  0  0
    3.9000    3.1735   -2.6763 C   0  0  0  0  0  0
    4.9710    3.9927   -2.3271 C   0  0  0  0  0  0
    4.7742    5.0509   -1.4428 C   0  0  0  0  0  0
    3.5065    5.2881   -0.9038 C   0  0  0  0  0  0
    0.5753    2.4503    0.2881 C   0  0  0  0  0  0
   -0.2322    1.4246   -0.2181 C   0  0  0  0  0  0
    0.0377    0.0835    0.0846 C   0  0  0  0  0  0
    1.1185   -0.2468    0.9014 C   0  0  0  0  0  0
    1.9270    0.7737    1.4072 C   0  0  0  0  0  0
    1.6581    2.1126    1.1073 C   0  0  0  0  0  0
    1.4903   -1.5087    1.2730 O   0  0  0  0  0  0
    0.6392   -2.5888    0.8609 C   0  0  0  0  0  0
    1.2046   -3.8915    1.4570 C   0  0  0  0  0  0
    0.3331   -5.0757    1.2814 N   0  0  0  0  0  0
    0.7095   -6.1503    2.2228 C   0  0  0  0  0  0
    2.0791   -6.7915    2.0157 C   0  0  0  0  0  0
    0.2894   -5.5084   -0.1281 C   0  0  0  0  0  0
   -0.6812   -6.6572   -0.3873 C   0  0  0  0  0  0
   -4.0215    4.7774    1.6895 H   0  0  0  0  0  0
   -2.2034    3.1804    1.3389 H   0  0  0  0  0  0
   -1.7384    7.8702   -0.3091 H   0  0  0  0  0  0
    1.0837    6.8612   -0.2574 H   0  0  0  0  0  0
    0.3736    6.4023   -1.8487 H   0  0  0  0  0  0
   -5.7960    7.9604    1.5630 H   0  0  0  0  0  0
   -4.9579    6.7635    2.5591 H   0  0  0  0  0  0
   -5.7006    6.2940    0.9782 H   0  0  0  0  0  0
    1.8089    2.7620   -2.4324 H   0  0  0  0  0  0
    4.0489    2.3495   -3.3718 H   0  0  0  0  0  0
    5.9588    3.8077   -2.7455 H   0  0  0  0  0  0
    5.6089    5.6935   -1.1684 H   0  0  0  0  0  0
    3.3830    6.1156   -0.2070 H   0  0  0  0  0  0
   -1.0804    1.6592   -0.8597 H   0  0  0  0  0  0
   -0.6181   -0.6724   -0.3385 H   0  0  0  0  0  0
    2.7748    0.5317    2.0456 H   0  0  0  0  0  0
    2.3011    2.8876    1.5216 H   0  0  0  0  0  0
    0.6301   -2.6453   -0.2331 H   0  0  0  0  0  0
   -0.3768   -2.4274    1.2416 H   0  0  0  0  0  0
    1.3534   -3.7059    2.5296 H   0  0  0  0  0  0
    2.2078   -4.0690    1.0477 H   0  0  0  0  0  0
   -0.0561   -6.9345    2.2053 H   0  0  0  0  0  0
    0.6632   -5.7526    3.2450 H   0  0  0  0  0  0
    2.2507   -7.5502    2.7869 H   0  0  0  0  0  0
    2.8874   -6.0586    2.0933 H   0  0  0  0  0  0
    2.1524   -7.2902    1.0447 H   0  0  0  0  0  0
    1.2862   -5.7813   -0.4944 H   0  0  0  0  0  0
   -0.0543   -4.6742   -0.7494 H   0  0  0  0  0  0
   -0.7774   -6.8262   -1.4651 H   0  0  0  0  0  0
   -1.6774   -6.4285    0.0054 H   0  0  0  0  0  0
   -0.3355   -7.5942    0.0591 H   0  0  0  0  0  0
  1  2  2  0  0  0
  1  4  1  0  0  0
  1 10  1  0  0  0
  2  3  1  0  0  0
  2 32  1  0  0  0
  3  6  2  0  0  0
  3 33  1  0  0  0
  4  5  2  0  0  0
  4 34  1  0  0  0
  5  6  1  0  0  0
  5  9  1  0  0  0
  6  7  1  0  0  0
  7  8  2  0  0  0
  7 18  1  0  0  0
  8  9  1  0  0  0
  8 12  1  0  0  0
  9 35  1  0  0  0
  9 36  1  0  0  0
 10 11  1  0  0  0
 11 37  1  0  0  0
 11 38  1  0  0  0
 11 39  1  0  0  0
 12 13  2  0  0  0
 12 17  1  0  0  0
 13 14  1  0  0  0
 13 40  1  0  0  0
 14 15  2  0  0  0
 14 41  1  0  0  0
 15 16  1  0  0  0
 15 42  1  0  0  0
 16 17  2  0  0  0
 16 43  1  0  0  0
 17 44  1  0  0  0
 18 19  2  0  0  0
 18 23  1  0  0  0
 19 20  1  0  0  0
 19 45  1  0  0  0
 20 21  2  0  0  0
 20 46  1  0  0  0
 21 22  1  0  0  0
 21 24  1  0  0  0
 22 23  2  0  0  0
 22 47  1  0  0  0
 23 48  1  0  0  0
 24 25  1  0  0  0
 25 26  1  0  0  0
 25 49  1  0  0  0
 25 50  1  0  0  0
 26 27  1  0  0  0
 26 51  1  0  0  0
 26 52  1  0  0  0
 27 28  1  0  0  0
 27 30  1  0  0  0
 28 29  1  0  0  0
 28 53  1  0  0  0
 28 54  1  0  0  0
 29 55  1  0  0  0
 29 56  1  0  0  0
 29 57  1  0  0  0
 30 31  1  0  0  0
 30 58  1  0  0  0
 30 59  1  0  0  0
 31 60  1  0  0  0
 31 61  1  0  0  0
 31 62  1  0  0  0
M  END
>  <Name>
tox-620

>  <substance>
Triethylamine, 2-[p -[6-methoxy-2-phenyl-3-inden-3-yl)phenoxy] hydrochloride

>  <CASRN>
64-96-0

>  <from_NCI>
1

>  <RBA>
0.000600

>  <method>
RBC

>  <chemical_class>
Triphenylethylene

>  <set>
1

$$$$
tox-621
  Cerius2 12190218273D 1   1.00000                          
 Structure written by MMmdl.
 42 41  0  0  0  0  0  0  0  0999 V2000
   -4.7988   -1.3522    2.2722 O   0  0  0  0  0  0
   -5.8341   -1.0939    3.1100 C   0  0  0  0  0  0
   -3.6981   -0.4377    2.3775 C   0  0  0  0  0  0
   -6.9159   -2.1005    2.9140 C   0  0  0  0  0  0
   -5.8812   -0.1706    3.9127 O   0  0  0  0  0  0
   -2.6211   -0.8350    1.3733 C   0  0  0  0  0  0
   -6.7275   -3.1955    1.9088 C   0  0  0  0  0  0
   -8.0312   -1.9871    3.6552 C   0  0  0  0  0  0
   -1.5163    0.0710    1.4689 O   0  0  0  0  0  0
   -0.4870   -0.2692    0.5333 C   0  0  0  0  0  0
    0.6715    0.7166    0.6652 C   0  0  0  0  0  0
    1.6982    0.3811   -0.2751 O   0  0  0  0  0  0
    2.8010    1.2898   -0.1816 C   0  0  0  0  0  0
    3.8699    0.9046   -1.1991 C   0  0  0  0  0  0
    4.9676    1.8229   -1.0979 O   0  0  0  0  0  0
    5.9837    1.5927   -1.9670 C   0  0  0  0  0  0
    7.0827    2.5885   -1.8011 C   0  0  0  0  0  0
    6.0151    0.6887   -2.7928 O   0  0  0  0  0  0
    8.2461    2.4226   -2.7333 C   0  0  0  0  0  0
    7.0401    3.5685   -0.8817 C   0  0  0  0  0  0
   -3.2853   -0.4640    3.3932 H   0  0  0  0  0  0
   -4.0376    0.5844    2.1705 H   0  0  0  0  0  0
   -3.0355   -0.8141    0.3582 H   0  0  0  0  0  0
   -2.2840   -1.8585    1.5762 H   0  0  0  0  0  0
   -7.5932   -3.8656    1.8693 H   0  0  0  0  0  0
   -5.8531   -3.8043    2.1612 H   0  0  0  0  0  0
   -6.5894   -2.7788    0.9057 H   0  0  0  0  0  0
   -8.8514   -2.6927    3.5542 H   0  0  0  0  0  0
   -8.1654   -1.1919    4.3841 H   0  0  0  0  0  0
   -0.8848   -0.2386   -0.4881 H   0  0  0  0  0  0
   -0.1300   -1.2884    0.7237 H   0  0  0  0  0  0
    1.0726    0.6826    1.6852 H   0  0  0  0  0  0
    0.3128    1.7361    0.4797 H   0  0  0  0  0  0
    3.2238    1.2618    0.8299 H   0  0  0  0  0  0
    2.4589    2.3140   -0.3731 H   0  0  0  0  0  0
    3.4459    0.9356   -2.2101 H   0  0  0  0  0  0
    4.2170   -0.1171   -1.0025 H   0  0  0  0  0  0
    9.0182    3.1812   -2.5652 H   0  0  0  0  0  0
    7.9183    2.5099   -3.7746 H   0  0  0  0  0  0
    8.7114    1.4410   -2.5948 H   0  0  0  0  0  0
    7.8548    4.2810   -0.7818 H   0  0  0  0  0  0
    6.2055    3.7014   -0.1995 H   0  0  0  0  0  0
  1  2  1  0  0  0
  1  3  1  0  0  0
  2  4  1  0  0  0
  2  5  2  0  0  0
  3  6  1  0  0  0
  3 21  1  0  0  0
  3 22  1  0  0  0
  4  7  1  0  0  0
  4  8  2  0  0  0
  6  9  1  0  0  0
  6 23  1  0  0  0
  6 24  1  0  0  0
  7 25  1  0  0  0
  7 26  1  0  0  0
  7 27  1  0  0  0
  8 28  1  0  0  0
  8 29  1  0  0  0
  9 10  1  0  0  0
 10 11  1  0  0  0
 10 30  1  0  0  0
 10 31  1  0  0  0
 11 12  1  0  0  0
 11 32  1  0  0  0
 11 33  1  0  0  0
 12 13  1  0  0  0
 13 14  1  0  0  0
 13 34  1  0  0  0
 13 35  1  0  0  0
 14 15  1  0  0  0
 14 36  1  0  0  0
 14 37  1  0  0  0
 15 16  1  0  0  0
 16 17  1  0  0  0
 16 18  2  0  0  0
 17 19  1  0  0  0
 17 20  2  0  0  0
 19 38  1  0  0  0
 19 39  1  0  0  0
 19 40  1  0  0  0
 20 41  1  0  0  0
 20 42  1  0  0  0
M  END
>  <Name>
tox-621

>  <substance>
Triethylene glycol dimethacrylate

>  <CASRN>
109-16-0

>  <from_NCI>
1

>  <RBA>
0.000000

>  <method>
hERa-FP

>  <chemical_class>
Acrylate

>  <set>
0

$$$$
tox-622
  Cerius2 12190218273D 1   1.00000                          
 Structure written by MMmdl.
 31 32  0  0  0  0  0  0  0  0999 V2000
   -1.8728   -1.7856    0.1733 C   0  0  0  0  0  0
   -2.6653   -2.0209   -0.9816 C   0  0  0  0  0  0
   -0.5316   -2.4087    0.3520 C   0  0  0  0  0  0
    0.6992   -1.6020    0.1009 C   0  0  0  0  0  0
   -3.9255   -1.3581   -0.9530 C   0  0  0  0  0  0
   -2.3157   -0.9861    1.2383 C   0  0  0  0  0  0
    0.7224   -0.3466   -0.3749 C   0  0  0  0  0  0
   -0.4340   -3.5673    0.7592 O   0  0  0  0  0  0
   -4.4295   -0.5298    0.0871 C   0  0  0  0  0  0
    1.9516    0.4318   -0.5985 C   0  0  0  0  0  0
   -2.3269   -2.7447   -1.9799 O   0  0  0  0  0  0
   -3.5694   -0.3734    1.1820 C   0  0  0  0  0  0
    4.2963    2.0567   -1.0799 C   0  0  0  0  0  0
    1.9026    1.8216   -0.4934 C   0  0  0  0  0  0
    3.1666   -0.1453   -0.9655 C   0  0  0  0  0  0
    3.0498    2.6038   -0.7242 C   0  0  0  0  0  0
    4.3032    0.6540   -1.1928 C   0  0  0  0  0  0
   -5.5732    0.0240    0.0292 O   0  0  0  0  0  0
    5.3284    2.7699   -1.2860 O   0  0  0  0  0  0
    1.6145   -2.1303    0.3511 H   0  0  0  0  0  0
   -4.5790   -1.5026   -1.8259 H   0  0  0  0  0  0
   -1.6893   -0.8376    2.1160 H   0  0  0  0  0  0
   -0.2023    0.1769   -0.6098 H   0  0  0  0  0  0
   -3.8728    0.2430    2.0322 H   0  0  0  0  0  0
    0.9753    2.3259   -0.2233 H   0  0  0  0  0  0
    3.2618   -1.2220   -1.0944 H   0  0  0  0  0  0
    2.9458    3.6876   -0.6180 H   0  0  0  0  0  0
    5.2271    0.1400   -1.4744 H   0  0  0  0  0  0
   -2.9527   -2.7444   -2.5551 H   0  0  0  0  0  0
   -5.7041    0.4783    0.7356 H   0  0  0  0  0  0
    5.9836    2.2680   -1.4892 H   0  0  0  0  0  0
  1  2  2  0  0  0
  1  3  1  0  0  0
  1  6  1  0  0  0
  2  5  1  0  0  0
  2 11  1  0  0  0
  3  4  1  0  0  0
  3  8  2  0  0  0
  4  7  2  0  0  0
  4 20  1  0  0  0
  5  9  2  0  0  0
  5 21  1  0  0  0
  6 12  2  0  0  0
  6 22  1  0  0  0
  7 10  1  0  0  0
  7 23  1  0  0  0
  9 12  1  0  0  0
  9 18  1  0  0  0
 10 14  2  0  0  0
 10 15  1  0  0  0
 11 29  1  0  0  0
 12 24  1  0  0  0
 13 16  2  0  0  0
 13 17  1  0  0  0
 13 19  1  0  0  0
 14 16  1  0  0  0
 14 25  1  0  0  0
 15 17  2  0  0  0
 15 26  1  0  0  0
 16 27  1  0  0  0
 17 28  1  0  0  0
 18 30  1  0  0  0
 19 31  1  0  0  0
M  END
>  <Name>
tox-622

>  <substance>
4,2',4'-Trihydroxychalcone

>  <CASRN>
961-29-5

>  <from_NCI>
1

>  <RBA>
0.050000

>  <method>
RUC

>  <chemical_class>
Chalconoid

>  <set>
1

$$$$
tox-623
  Cerius2 12190218273D 1   1.00000                          
 Structure written by MMmdl.
 30 32  0  0  0  0  0  0  0  0999 V2000
    0.1233   -0.2935    1.0418 C   0  0  0  0  0  0
   -0.1122   -1.5697    1.4009 C   0  0  0  0  0  0
   -1.4003   -2.1968    0.9997 C   0  0  0  0  0  0
   -1.6486   -3.3602    1.3099 O   0  0  0  0  0  0
   -2.3330   -1.3600    0.2318 C   0  0  0  0  0  0
   -3.5666   -1.8624   -0.1924 C   0  0  0  0  0  0
   -4.4211   -1.0362   -0.9152 C   0  0  0  0  0  0
   -4.0633    0.2756   -1.2177 C   0  0  0  0  0  0
   -2.8284    0.7697   -0.7896 C   0  0  0  0  0  0
   -1.9633   -0.0506   -0.0641 C   0  0  0  0  0  0
   -0.7681    0.4946    0.3268 O   0  0  0  0  0  0
    1.3642    0.4247    1.3953 C   0  0  0  0  0  0
    1.2905    1.6742    2.0305 C   0  0  0  0  0  0
    2.4534    2.3798    2.3525 C   0  0  0  0  0  0
    3.6946    1.8424    2.0339 C   0  0  0  0  0  0
    3.7932    0.6111    1.3958 C   0  0  0  0  0  0
    2.6285   -0.0938    1.0748 C   0  0  0  0  0  0
    4.8068    2.5592    2.3628 O   0  0  0  0  0  0
   -5.6185   -1.5506   -1.3172 O   0  0  0  0  0  0
    0.7736   -2.3354    2.1424 O   0  0  0  0  0  0
   -3.8591   -2.8837    0.0369 H   0  0  0  0  0  0
   -4.7290    0.9246   -1.7825 H   0  0  0  0  0  0
   -2.5458    1.7940   -1.0239 H   0  0  0  0  0  0
    0.3244    2.1084    2.2849 H   0  0  0  0  0  0
    2.3815    3.3449    2.8487 H   0  0  0  0  0  0
    4.7603    0.1854    1.1386 H   0  0  0  0  0  0
    2.7196   -1.0533    0.5672 H   0  0  0  0  0  0
    5.5972    2.0531    2.0766 H   0  0  0  0  0  0
   -6.1056   -0.8565   -1.8113 H   0  0  0  0  0  0
    0.3347   -3.2089    2.2573 H   0  0  0  0  0  0
  1  2  2  0  0  0
  1 11  1  0  0  0
  1 12  1  0  0  0
  2  3  1  0  0  0
  2 20  1  0  0  0
  3  4  2  0  0  0
  3  5  1  0  0  0
  5  6  2  0  0  0
  5 10  1  0  0  0
  6  7  1  0  0  0
  6 21  1  0  0  0
  7  8  2  0  0  0
  7 19  1  0  0  0
  8  9  1  0  0  0
  8 22  1  0  0  0
  9 10  2  0  0  0
  9 23  1  0  0  0
 10 11  1  0  0  0
 12 13  2  0  0  0
 12 17  1  0  0  0
 13 14  1  0  0  0
 13 24  1  0  0  0
 14 15  2  0  0  0
 14 25  1  0  0  0
 15 16  1  0  0  0
 15 18  1  0  0  0
 16 17  2  0  0  0
 16 26  1  0  0  0
 17 27  1  0  0  0
 18 28  1  0  0  0
 19 29  1  0  0  0
 20 30  1  0  0  0
M  END
>  <Name>
tox-623

>  <substance>
3,6,4',-Trihydroxyflavone

>  <CASRN>
253195-19-6

>  <from_NCI>
0

>  <RBA>
0.500000

>  <method>
RUC

>  <chemical_class>
Flavone

>  <set>
0

$$$$
tox-624
  Cerius2 12190218273D 1   1.00000                          
 Structure written by MMmdl.
 30 32  0  0  0  0  0  0  0  0999 V2000
    0.6517    1.3319    0.2628 C   0  0  0  0  0  0
    0.7150    0.0051    0.0695 C   0  0  0  0  0  0
   -0.5197   -0.6753   -0.4148 C   0  0  0  0  0  0
   -0.5658   -1.8825   -0.6395 O   0  0  0  0  0  0
   -1.7026    0.1831   -0.6267 C   0  0  0  0  0  0
   -2.9112   -0.3653   -1.0707 C   0  0  0  0  0  0
   -3.9993    0.4766   -1.2602 C   0  0  0  0  0  0
   -3.8964    1.8463   -1.0146 C   0  0  0  0  0  0
   -2.6976    2.3955   -0.5737 C   0  0  0  0  0  0
   -1.5981    1.5549   -0.3802 C   0  0  0  0  0  0
   -0.4375    2.1430    0.0554 O   0  0  0  0  0  0
    1.9592   -0.7300    0.3533 C   0  0  0  0  0  0
    3.1585   -0.3883   -0.2910 C   0  0  0  0  0  0
    4.3376   -1.0856   -0.0137 C   0  0  0  0  0  0
    4.3221   -2.1255    0.9082 C   0  0  0  0  0  0
    3.1458   -2.4814    1.5582 C   0  0  0  0  0  0
    1.9663   -1.7836    1.2796 C   0  0  0  0  0  0
    5.4917   -2.7822    1.1527 O   0  0  0  0  0  0
   -5.0053    2.6184   -1.2215 O   0  0  0  0  0  0
   -5.1801   -0.0578   -1.6938 O   0  0  0  0  0  0
    1.4823    1.9292    0.6232 H   0  0  0  0  0  0
   -3.0033   -1.4300   -1.2658 H   0  0  0  0  0  0
   -2.6050    3.4604   -0.3791 H   0  0  0  0  0  0
    3.1865    0.4206   -1.0200 H   0  0  0  0  0  0
    5.2604   -0.8122   -0.5204 H   0  0  0  0  0  0
    3.1251   -3.2937    2.2810 H   0  0  0  0  0  0
    1.0517   -2.0708    1.7972 H   0  0  0  0  0  0
    5.3204   -3.4821    1.8189 H   0  0  0  0  0  0
   -4.7781    3.5490   -1.0084 H   0  0  0  0  0  0
   -5.8033    0.7020   -1.7589 H   0  0  0  0  0  0
  1  2  2  0  0  0
  1 11  1  0  0  0
  1 21  1  0  0  0
  2  3  1  0  0  0
  2 12  1  0  0  0
  3  4  2  0  0  0
  3  5  1  0  0  0
  5  6  2  0  0  0
  5 10  1  0  0  0
  6  7  1  0  0  0
  6 22  1  0  0  0
  7  8  2  0  0  0
  7 20  1  0  0  0
  8  9  1  0  0  0
  8 19  1  0  0  0
  9 10  2  0  0  0
  9 23  1  0  0  0
 10 11  1  0  0  0
 12 13  2  0  0  0
 12 17  1  0  0  0
 13 14  1  0  0  0
 13 24  1  0  0  0
 14 15  2  0  0  0
 14 25  1  0  0  0
 15 16  1  0  0  0
 15 18  1  0  0  0
 16 17  2  0  0  0
 16 26  1  0  0  0
 17 27  1  0  0  0
 18 28  1  0  0  0
 19 29  1  0  0  0
 20 30  1  0  0  0
M  END
>  <Name>
tox-624

>  <substance>
6,7,4'-Trihydroxyisoflavone

>  <CASRN>
17817-31-1

>  <from_NCI>
0

>  <RBA>
0.000000

>  <method>
RUC

>  <chemical_class>
Isoflavone

>  <set>
0

$$$$
tox-625
  Cerius2 12190218273D 1   1.00000                          
 Structure written by MMmdl.
 30 32  0  0  0  0  0  0  0  0999 V2000
    0.1199    1.3703    0.2349 C   0  0  0  0  0  0
    0.2040    0.0489    0.0146 C   0  0  0  0  0  0
   -1.0156   -0.6381   -0.4982 C   0  0  0  0  0  0
   -1.0412   -1.8407   -0.7496 O   0  0  0  0  0  0
   -2.2080    0.2089   -0.7039 C   0  0  0  0  0  0
   -3.4069   -0.3413   -1.1717 C   0  0  0  0  0  0
   -4.5190    0.4821   -1.3601 C   0  0  0  0  0  0
   -4.4253    1.8431   -1.0816 C   0  0  0  0  0  0
   -3.2365    2.3987   -0.6163 C   0  0  0  0  0  0
   -2.1256    1.5737   -0.4280 C   0  0  0  0  0  0
   -0.9788    2.1699    0.0319 O   0  0  0  0  0  0
    1.4548   -0.6756    0.2975 C   0  0  0  0  0  0
    2.6538   -0.3090   -0.3335 C   0  0  0  0  0  0
    3.8236   -1.0041   -0.0473 C   0  0  0  0  0  0
    3.8222   -2.0611    0.8600 C   0  0  0  0  0  0
    2.6457   -2.4378    1.4941 C   0  0  0  0  0  0
    1.4636   -1.7441    1.2111 C   0  0  0  0  0  0
    5.0032   -2.7051    1.0998 O   0  0  0  0  0  0
    4.9817   -0.6344   -0.6726 O   0  0  0  0  0  0
   -5.5347    2.6115   -1.2797 O   0  0  0  0  0  0
    0.9376    1.9717    0.6174 H   0  0  0  0  0  0
   -3.4831   -1.4042   -1.3908 H   0  0  0  0  0  0
   -5.4525    0.0577   -1.7235 H   0  0  0  0  0  0
   -3.1615    3.4608   -0.3985 H   0  0  0  0  0  0
    2.6792    0.5096   -1.0494 H   0  0  0  0  0  0
    2.6252   -3.2599    2.2052 H   0  0  0  0  0  0
    0.5458   -2.0457    1.7151 H   0  0  0  0  0  0
    4.8361   -3.4167    1.7543 H   0  0  0  0  0  0
    5.6706   -1.2482   -0.3285 H   0  0  0  0  0  0
   -5.3189    3.5393   -1.0436 H   0  0  0  0  0  0
  1  2  2  0  0  0
  1 11  1  0  0  0
  1 21  1  0  0  0
  2  3  1  0  0  0
  2 12  1  0  0  0
  3  4  2  0  0  0
  3  5  1  0  0  0
  5  6  2  0  0  0
  5 10  1  0  0  0
  6  7  1  0  0  0
  6 22  1  0  0  0
  7  8  2  0  0  0
  7 23  1  0  0  0
  8  9  1  0  0  0
  8 20  1  0  0  0
  9 10  2  0  0  0
  9 24  1  0  0  0
 10 11  1  0  0  0
 12 13  2  0  0  0
 12 17  1  0  0  0
 13 14  1  0  0  0
 13 25  1  0  0  0
 14 15  2  0  0  0
 14 19  1  0  0  0
 15 16  1  0  0  0
 15 18  1  0  0  0
 16 17  2  0  0  0
 16 26  1  0  0  0
 17 27  1  0  0  0
 18 28  1  0  0  0
 19 29  1  0  0  0
 20 30  1  0  0  0
M  END
>  <Name>
tox-625

>  <substance>
7,3',4'-Trihydroxyisoflavone

>  <CASRN>
485-63-2

>  <from_NCI>
0

>  <RBA>
0.005000

>  <method>
RUC

>  <chemical_class>
Isoflavone

>  <set>
0

$$$$
tox-626
  Cerius2 12190218273D 1   1.00000                          
 Structure written by MMmdl.
 42 44  0  0  0  0  0  0  0  0999 V2000
   -3.1621   -1.9103   -1.0723 C   0  0  0  0  0  0
   -3.4734   -2.8842   -0.1246 C   0  0  0  0  0  0
   -2.6263   -3.0945    0.9625 C   0  0  0  0  0  0
   -1.4659   -2.3300    1.1032 C   0  0  0  0  0  0
   -1.1451   -1.3473    0.1569 C   0  0  0  0  0  0
   -2.0022   -1.1449   -0.9334 C   0  0  0  0  0  0
    0.0915   -0.5387    0.3058 C   0  0  0  0  0  0
    1.3576   -1.3194   -0.0246 C   0  0  0  0  0  0
    0.0595    0.7520    0.7404 C   0  0  0  0  0  0
    1.3282    1.5150    0.8595 C   0  0  0  0  0  0
   -1.2259    1.4081    1.1040 C   0  0  0  0  0  0
    1.9537    1.6480    2.1065 C   0  0  0  0  0  0
    3.1451    2.3670    2.2239 C   0  0  0  0  0  0
    3.7165    2.9602    1.0987 C   0  0  0  0  0  0
    3.0976    2.8378   -0.1448 C   0  0  0  0  0  0
    1.9061    2.1196   -0.2650 C   0  0  0  0  0  0
   -1.8179    2.3297    0.2297 C   0  0  0  0  0  0
   -3.0168    2.9586    0.5729 C   0  0  0  0  0  0
   -3.6291    2.6761    1.7933 C   0  0  0  0  0  0
   -3.0437    1.7667    2.6731 C   0  0  0  0  0  0
   -1.8448    1.1366    2.3322 C   0  0  0  0  0  0
    1.5853   -1.4629   -1.5249 C   0  0  0  0  0  0
   -3.8228   -1.7456   -1.9214 H   0  0  0  0  0  0
   -4.3780   -3.4800   -0.2332 H   0  0  0  0  0  0
   -2.8695   -3.8539    1.7034 H   0  0  0  0  0  0
   -0.8169   -2.5023    1.9603 H   0  0  0  0  0  0
   -1.7703   -0.3898   -1.6826 H   0  0  0  0  0  0
    1.3133   -2.3182    0.4279 H   0  0  0  0  0  0
    2.2444   -0.8540    0.4184 H   0  0  0  0  0  0
    1.5185    1.1891    2.9927 H   0  0  0  0  0  0
    3.6274    2.4643    3.1948 H   0  0  0  0  0  0
    4.6453    3.5206    1.1914 H   0  0  0  0  0  0
    3.5424    3.3031   -1.0226 H   0  0  0  0  0  0
    1.4314    2.0343   -1.2410 H   0  0  0  0  0  0
   -1.3515    2.5597   -0.7266 H   0  0  0  0  0  0
   -3.4728    3.6698   -0.1134 H   0  0  0  0  0  0
   -4.5637    3.1666    2.0598 H   0  0  0  0  0  0
   -3.5202    1.5475    3.6268 H   0  0  0  0  0  0
   -1.3968    0.4309    3.0296 H   0  0  0  0  0  0
    2.5306   -1.9827   -1.7121 H   0  0  0  0  0  0
    1.6341   -0.4867   -2.0174 H   0  0  0  0  0  0
    0.7879   -2.0449   -1.9981 H   0  0  0  0  0  0
  1  2  2  0  0  0
  1  6  1  0  0  0
  1 23  1  0  0  0
  2  3  1  0  0  0
  2 24  1  0  0  0
  3  4  2  0  0  0
  3 25  1  0  0  0
  4  5  1  0  0  0
  4 26  1  0  0  0
  5  6  2  0  0  0
  5  7  1  0  0  0
  6 27  1  0  0  0
  7  8  1  0  0  0
  7  9  2  0  0  0
  8 22  1  0  0  0
  8 28  1  0  0  0
  8 29  1  0  0  0
  9 10  1  0  0  0
  9 11  1  0  0  0
 10 12  2  0  0  0
 10 16  1  0  0  0
 11 17  2  0  0  0
 11 21  1  0  0  0
 12 13  1  0  0  0
 12 30  1  0  0  0
 13 14  2  0  0  0
 13 31  1  0  0  0
 14 15  1  0  0  0
 14 32  1  0  0  0
 15 16  2  0  0  0
 15 33  1  0  0  0
 16 34  1  0  0  0
 17 18  1  0  0  0
 17 35  1  0  0  0
 18 19  2  0  0  0
 18 36  1  0  0  0
 19 20  1  0  0  0
 19 37  1  0  0  0
 20 21  2  0  0  0
 20 38  1  0  0  0
 21 39  1  0  0  0
 22 40  1  0  0  0
 22 41  1  0  0  0
 22 42  1  0  0  0
M  END
>  <Name>
tox-626

>  <substance>
1,1,2-Triphenylbut-1-ene

>  <CASRN>
63019-13-6

>  <from_NCI>
1

>  <RBA>
0.010000

>  <method>
RUC

>  <chemical_class>
Triphenylethylene

>  <set>
1

$$$$
tox-627
  Cerius2 12190218273D 1   1.00000                          
 Structure written by MMmdl.
 36 38  0  0  0  0  0  0  0  0999 V2000
    0.6359    0.5615   -0.0497 C   0  0  0  0  0  0
    1.8570    1.4126   -0.0181 C   0  0  0  0  0  0
    0.6536   -0.8527    0.4047 C   0  0  0  0  0  0
   -0.4894    1.1340   -0.5372 C   0  0  0  0  0  0
    1.8721    2.6408    0.6607 C   0  0  0  0  0  0
    3.0313    0.9757   -0.6481 C   0  0  0  0  0  0
    0.4224   -1.9073   -0.4902 C   0  0  0  0  0  0
    0.9428   -1.1492    1.7440 C   0  0  0  0  0  0
   -1.8268    0.5315   -0.6457 C   0  0  0  0  0  0
    3.0313    3.4200    0.6952 C   0  0  0  0  0  0
    4.1897    1.7563   -0.6131 C   0  0  0  0  0  0
    0.4607   -3.2320   -0.0487 C   0  0  0  0  0  0
    0.9806   -2.4746    2.1836 C   0  0  0  0  0  0
   -2.5235    0.0863    0.4843 C   0  0  0  0  0  0
   -2.4385    0.4454   -1.9022 C   0  0  0  0  0  0
    4.1887    2.9781    0.0571 C   0  0  0  0  0  0
    0.7379   -3.5146    1.2878 C   0  0  0  0  0  0
   -3.8029   -0.4596    0.3558 C   0  0  0  0  0  0
   -3.7181   -0.1003   -2.0294 C   0  0  0  0  0  0
   -4.3987   -0.5545   -0.9009 C   0  0  0  0  0  0
   -0.4577    2.1579   -0.9126 H   0  0  0  0  0  0
    0.9815    2.9983    1.1758 H   0  0  0  0  0  0
    3.0527    0.0242   -1.1776 H   0  0  0  0  0  0
    0.2118   -1.7037   -1.5388 H   0  0  0  0  0  0
    1.1355   -0.3484    2.4564 H   0  0  0  0  0  0
    3.0305    4.3716    1.2240 H   0  0  0  0  0  0
    5.0939    1.4083   -1.1095 H   0  0  0  0  0  0
    0.2756   -4.0435   -0.7501 H   0  0  0  0  0  0
    1.2009   -2.6946    3.2267 H   0  0  0  0  0  0
   -2.0772    0.1620    1.4744 H   0  0  0  0  0  0
   -1.9209    0.7973   -2.7934 H   0  0  0  0  0  0
    5.0919    3.5853    0.0847 H   0  0  0  0  0  0
    0.7678   -4.5472    1.6311 H   0  0  0  0  0  0
   -4.3355   -0.8084    1.2387 H   0  0  0  0  0  0
   -4.1841   -0.1693   -3.0108 H   0  0  0  0  0  0
   -5.3960   -0.9793   -1.0003 H   0  0  0  0  0  0
  1  2  1  0  0  0
  1  3  1  0  0  0
  1  4  2  0  0  0
  2  5  2  0  0  0
  2  6  1  0  0  0
  3  7  2  0  0  0
  3  8  1  0  0  0
  4  9  1  0  0  0
  4 21  1  0  0  0
  5 10  1  0  0  0
  5 22  1  0  0  0
  6 11  2  0  0  0
  6 23  1  0  0  0
  7 12  1  0  0  0
  7 24  1  0  0  0
  8 13  2  0  0  0
  8 25  1  0  0  0
  9 14  2  0  0  0
  9 15  1  0  0  0
 10 16  2  0  0  0
 10 26  1  0  0  0
 11 16  1  0  0  0
 11 27  1  0  0  0
 12 17  2  0  0  0
 12 28  1  0  0  0
 13 17  1  0  0  0
 13 29  1  0  0  0
 14 18  1  0  0  0
 14 30  1  0  0  0
 15 19  2  0  0  0
 15 31  1  0  0  0
 16 32  1  0  0  0
 17 33  1  0  0  0
 18 20  2  0  0  0
 18 34  1  0  0  0
 19 20  1  0  0  0
 19 35  1  0  0  0
 20 36  1  0  0  0
M  END
>  <Name>
tox-627

>  <substance>
Triphenylethylene

>  <CASRN>
58-72-0

>  <from_NCI>
1

>  <RBA>
0.002000

>  <method>
RUC

>  <chemical_class>
Triphenylethylene

>  <set>
2

$$$$
tox-628
  Cerius2 12190218273D 1   1.00000                          
Structure written by Cerius2 SD Exporter
 39 41  0  0  0  0  0  0  0  0999 V2000
   -1.0011    0.0707   -1.3051 P   0  0  0  0  0  0
   -1.8209   -0.5705   -2.5400 O   0  0  0  0  0  0
   -0.9767    1.6422   -1.6766 O   0  0  0  0  0  0
    0.5163   -0.3878   -1.6137 O   0  0  0  0  0  0
   -1.8928   -0.1623    0.1637 O   0  0  0  0  0  0
   -2.0266   -1.9098   -2.5400 C   0  0  0  0  0  0
   -0.3489    2.4877   -0.8240 C   0  0  0  0  0  0
    1.4851   -0.0058   -0.7468 C   0  0  0  0  0  0
   -3.3076   -2.5226   -2.5400 C   0  0  0  0  0  0
   -0.8555   -2.7126   -2.5518 C   0  0  0  0  0  0
    0.2620    1.9834    0.3545 C   0  0  0  0  0  0
   -0.2913    3.8763   -1.1151 C   0  0  0  0  0  0
    2.5674    0.7943   -1.1991 C   0  0  0  0  0  0
    1.4115   -0.3955    0.6167 C   0  0  0  0  0  0
   -3.4173   -3.9383   -2.5517 C   0  0  0  0  0  0
   -0.9653   -4.1283   -2.5635 C   0  0  0  0  0  0
    0.9305    2.8678    1.2419 C   0  0  0  0  0  0
    0.3772    4.7607   -0.2278 C   0  0  0  0  0  0
    3.5762    1.2048   -0.2880 C   0  0  0  0  0  0
    2.4203    0.0150    1.5278 C   0  0  0  0  0  0
   -2.2461   -4.7411   -2.5634 C   0  0  0  0  0  0
    0.9881    4.2564    0.9507 C   0  0  0  0  0  0
    3.5026    0.8152    1.0755 C   0  0  0  0  0  0
   -4.2148   -1.9007   -2.5405 H   0  0  0  0  0  0
    0.1368   -2.2380   -2.5422 H   0  0  0  0  0  0
    0.2256    0.9064    0.5753 H   0  0  0  0  0  0
   -0.7727    4.2682   -2.0232 H   0  0  0  0  0  0
    2.6194    1.1040   -2.2533 H   0  0  0  0  0  0
    0.5781   -1.0232    0.9651 H   0  0  0  0  0  0
   -4.4096   -4.4129   -2.5613 H   0  0  0  0  0  0
   -0.0580   -4.7503   -2.5630 H   0  0  0  0  0  0
    1.4118    2.4758    2.1500 H   0  0  0  0  0  0
    0.4136    5.8376   -0.4485 H   0  0  0  0  0  0
    4.4096    1.8325   -0.6364 H   0  0  0  0  0  0
    2.3683   -0.2947    2.5820 H   0  0  0  0  0  0
   -2.3312   -5.8376   -2.5820 H   0  0  0  0  0  0
    1.5140    4.9400    1.6333 H   0  0  0  0  0  0
    4.2791    1.1410    1.7833 H   0  0  0  0  0  0
   -1.4613    0.1752    0.8137 H   0  0  0  0  0  0
  1  2  1  6  0  0
  1  3  1  0  0  0
  1  4  1  0  0  0
  1  5  1  1  0  0
  2  6  1  0  0  0
  3  7  1  1  0  0
  4  8  1  1  0  0
  5 39  1  0  0  0
  6  9  2  0  0  0
  6 10  1  0  0  0
  7 11  2  0  0  0
  7 12  1  0  0  0
  8 13  2  0  0  0
  8 14  1  1  0  0
  9 15  1  0  0  0
  9 24  1  0  0  0
 10 16  2  0  0  0
 10 25  1  0  0  0
 11 17  1  1  0  0
 11 26  1  0  0  0
 12 18  2  0  0  0
 12 27  1  6  0  0
 13 19  1  1  0  0
 13 28  1  6  0  0
 14 20  2  0  0  0
 14 29  1  0  0  0
 15 21  2  0  0  0
 15 30  1  0  0  0
 16 21  1  0  0  0
 16 31  1  0  0  0
 17 22  2  0  0  0
 17 32  1  1  0  0
 18 22  1  1  0  0
 18 33  1  0  0  0
 19 23  2  0  0  0
 19 34  1  0  0  0
 20 23  1  0  0  0
 20 35  1  1  0  0
 21 36  1  0  0  0
 22 37  1  1  0  0
 23 38  1  1  0  0
M  END
>  <Name>
tox-628

>  <substance>
Triphenyl phosphate

>  <CASRN>
115-86-6

>  <from_NCI>
1

>  <RBA>
0.000000

>  <method>
RUC

>  <chemical_class>
Phosphate ester

>  <set>
2

$$$$
tox-629
  Cerius2 12190218273D 1   1.00000                          
 Structure written by MMmdl.
 35 37  0  0  0  0  0  0  0  0999 V2000
   -0.3547    0.1140   -1.2536 C   0  0  0  0  0  0
    1.0026   -0.5545   -1.5176 C   0  0  0  0  0  0
   -0.3818    1.0107   -0.0071 C   0  0  0  0  0  0
   -1.5562   -0.8354   -1.3708 C   0  0  0  0  0  0
    1.2891   -1.8717   -1.1188 C   0  0  0  0  0  0
    0.3263    0.6989    1.1666 C   0  0  0  0  0  0
   -1.1716    2.1760   -0.0192 C   0  0  0  0  0  0
    2.0178    0.1851   -2.1534 C   0  0  0  0  0  0
   -2.0685   -1.1369   -2.6470 C   0  0  0  0  0  0
   -2.1505   -1.4475   -0.2536 C   0  0  0  0  0  0
    3.5307   -1.6887   -2.0011 C   0  0  0  0  0  0
   -3.7277   -2.5967   -1.6778 C   0  0  0  0  0  0
   -0.5216    2.6859    2.2481 C   0  0  0  0  0  0
    0.2588    1.5337    2.2865 C   0  0  0  0  0  0
    3.2729   -0.3794   -2.3966 C   0  0  0  0  0  0
   -3.1494   -2.0095   -2.7994 C   0  0  0  0  0  0
   -1.2386    3.0102    1.1001 C   0  0  0  0  0  0
   -3.2320   -2.3207   -0.4065 C   0  0  0  0  0  0
    2.5452   -2.4361   -1.3622 C   0  0  0  0  0  0
   -0.6041    3.7114    3.6282 Cl  0  0  0  0  0  0
   -5.0584   -3.6726   -1.8638 Cl  0  0  0  0  0  0
    5.0765   -2.3852   -2.2987 Cl  0  0  0  0  0  0
   -0.4799    0.8153   -2.0952 H   0  0  0  0  0  0
    0.5414   -2.4757   -0.6081 H   0  0  0  0  0  0
    0.9359   -0.2008    1.2287 H   0  0  0  0  0  0
   -1.7454    2.4412   -0.9071 H   0  0  0  0  0  0
    1.8356    1.2141   -2.4631 H   0  0  0  0  0  0
   -1.6231   -0.6918   -3.5366 H   0  0  0  0  0  0
   -1.7771   -1.2584    0.7512 H   0  0  0  0  0  0
    0.8168    1.2728    3.1828 H   0  0  0  0  0  0
    4.0400    0.2115   -2.8917 H   0  0  0  0  0  0
   -3.5287   -2.2248   -3.7956 H   0  0  0  0  0  0
   -1.8540    3.9061    1.0653 H   0  0  0  0  0  0
   -3.6766   -2.7810    0.4729 H   0  0  0  0  0  0
    2.7431   -3.4578   -1.0462 H   0  0  0  0  0  0
  1  2  1  0  0  0
  1  3  1  0  0  0
  1  4  1  0  0  0
  1 23  1  0  0  0
  2  5  2  0  0  0
  2  8  1  0  0  0
  3  6  2  0  0  0
  3  7  1  0  0  0
  4  9  2  0  0  0
  4 10  1  0  0  0
  5 19  1  0  0  0
  5 24  1  0  0  0
  6 14  1  0  0  0
  6 25  1  0  0  0
  7 17  2  0  0  0
  7 26  1  0  0  0
  8 15  2  0  0  0
  8 27  1  0  0  0
  9 16  1  0  0  0
  9 28  1  0  0  0
 10 18  2  0  0  0
 10 29  1  0  0  0
 11 15  1  0  0  0
 11 19  2  0  0  0
 11 22  1  0  0  0
 12 16  2  0  0  0
 12 18  1  0  0  0
 12 21  1  0  0  0
 13 14  2  0  0  0
 13 17  1  0  0  0
 13 20  1  0  0  0
 14 30  1  0  0  0
 15 31  1  0  0  0
 16 32  1  0  0  0
 17 33  1  0  0  0
 18 34  1  0  0  0
 19 35  1  0  0  0
M  END
>  <Name>
tox-629

>  <substance>
Tris(4-chlorophenyl)methane

>  <CASRN>
27575-78-6

>  <from_NCI>
1

>  <RBA>
0.100000

>  <method>
MCF-7 cells

>  <chemical_class>
Organochlorine

>  <set>
2

$$$$
tox-630
  Cerius2 12190218273D 1   1.00000                          
 Structure written by MMmdl.
 36 38  0  0  0  0  0  0  0  0999 V2000
    1.3171    1.3678    1.3379 C   0  0  0  0  0  0
    1.9066    2.0781    2.4578 O   0  0  0  0  0  0
   -0.2143    1.4232    1.5702 C   0  0  0  0  0  0
   -1.0731    0.4056    1.1054 C   0  0  0  0  0  0
   -2.4577    0.4808    1.2948 C   0  0  0  0  0  0
   -3.0111    1.5799    1.9431 C   0  0  0  0  0  0
   -2.1927    2.6077    2.3988 C   0  0  0  0  0  0
   -0.8086    2.5322    2.2094 C   0  0  0  0  0  0
   -4.7141    1.6723    2.1738 Cl  0  0  0  0  0  0
    1.7876    2.0936    0.0509 C   0  0  0  0  0  0
    0.9044    2.4955   -0.9686 C   0  0  0  0  0  0
    1.3742    3.1371   -2.1210 C   0  0  0  0  0  0
    2.7348    3.3837   -2.2765 C   0  0  0  0  0  0
    3.6334    2.9923   -1.2904 C   0  0  0  0  0  0
    3.1644    2.3518   -0.1397 C   0  0  0  0  0  0
    3.3072    4.1716   -3.6954 Cl  0  0  0  0  0  0
    1.8602   -0.0804    1.4525 C   0  0  0  0  0  0
    2.0505   -0.6739    2.7185 C   0  0  0  0  0  0
    2.5126   -1.9879    2.8432 C   0  0  0  0  0  0
    2.7828   -2.7370    1.7028 C   0  0  0  0  0  0
    2.5890   -2.1853    0.4401 C   0  0  0  0  0  0
    2.1266   -0.8707    0.3156 C   0  0  0  0  0  0
    3.3500   -4.3550    1.8538 Cl  0  0  0  0  0  0
    2.1709    2.9562    2.1251 H   0  0  0  0  0  0
   -0.6790   -0.4620    0.5788 H   0  0  0  0  0  0
   -3.0923   -0.3225    0.9275 H   0  0  0  0  0  0
   -2.6182    3.4744    2.8995 H   0  0  0  0  0  0
   -0.1952    3.3583    2.5673 H   0  0  0  0  0  0
   -0.1666    2.3175   -0.8927 H   0  0  0  0  0  0
    0.6668    3.4375   -2.8908 H   0  0  0  0  0  0
    4.6990    3.1762   -1.4057 H   0  0  0  0  0  0
    3.8878    2.0437    0.6163 H   0  0  0  0  0  0
    1.8337   -0.1090    3.6253 H   0  0  0  0  0  0
    2.6535   -2.4147    3.8335 H   0  0  0  0  0  0
    2.7892   -2.7691   -0.4556 H   0  0  0  0  0  0
    1.9688   -0.4768   -0.6876 H   0  0  0  0  0  0
  1  2  1  0  0  0
  1  3  1  0  0  0
  1 10  1  0  0  0
  1 17  1  0  0  0
  2 24  1  0  0  0
  3  4  2  0  0  0
  3  8  1  0  0  0
  4  5  1  0  0  0
  4 25  1  0  0  0
  5  6  2  0  0  0
  5 26  1  0  0  0
  6  7  1  0  0  0
  6  9  1  0  0  0
  7  8  2  0  0  0
  7 27  1  0  0  0
  8 28  1  0  0  0
 10 11  2  0  0  0
 10 15  1  0  0  0
 11 12  1  0  0  0
 11 29  1  0  0  0
 12 13  2  0  0  0
 12 30  1  0  0  0
 13 14  1  0  0  0
 13 16  1  0  0  0
 14 15  2  0  0  0
 14 31  1  0  0  0
 15 32  1  0  0  0
 17 18  2  0  0  0
 17 22  1  0  0  0
 18 19  1  0  0  0
 18 33  1  0  0  0
 19 20  2  0  0  0
 19 34  1  0  0  0
 20 21  1  0  0  0
 20 23  1  0  0  0
 21 22  2  0  0  0
 21 35  1  0  0  0
 22 36  1  0  0  0
M  END
>  <Name>
tox-630

>  <substance>
Tris(4-chlorophenyl)methanol

>  <CASRN>
30100-80-8

>  <from_NCI>
0

>  <RBA>
0.100000

>  <method>
MCF-7 cells

>  <chemical_class>
Organochlorine

>  <set>
1

$$$$
tox-631
  Cerius2 12190218273D 1   1.00000                          
 Structure written by MMmdl.
 19 19  0  0  0  0  0  0  0  0999 V2000
   -1.0846    0.0832    0.0140 C   0  0  0  0  0  0
    0.3229    0.0732    0.0217 C   0  0  0  0  0  0
   -1.8536   -1.1246    0.0144 C   0  0  0  0  0  0
   -1.8256    1.2509    0.0055 O   0  0  0  0  0  0
    1.0129   -1.1381    0.0301 C   0  0  0  0  0  0
   -1.0910   -2.3150    0.0231 C   0  0  0  0  0  0
   -3.1309   -1.1722    0.0075 O   0  0  0  0  0  0
   -1.1207    2.4917    0.0044 C   0  0  0  0  0  0
    0.3102   -2.3356    0.0308 C   0  0  0  0  0  0
    2.4921   -1.1310    0.0382 C   0  0  0  0  0  0
    3.1581   -2.1642    0.0456 O   0  0  0  0  0  0
    0.8955    0.9956    0.0214 H   0  0  0  0  0  0
   -1.6034   -3.2821    0.0239 H   0  0  0  0  0  0
   -1.8637    3.2949   -0.0027 H   0  0  0  0  0  0
   -0.5093    2.5954   -0.8977 H   0  0  0  0  0  0
   -0.5191    2.6025    0.9123 H   0  0  0  0  0  0
    0.8318   -3.2902    0.0374 H   0  0  0  0  0  0
    2.9763   -0.1393    0.0372 H   0  0  0  0  0  0
   -3.3842   -1.9836    0.0092 H   0  0  0  0  0  0
  1  2  2  0  0  0
  1  3  1  0  0  0
  1  4  1  0  0  0
  2  5  1  0  0  0
  2 12  1  0  0  0
  3  6  2  0  0  0
  3  7  1  0  0  0
  4  8  1  0  0  0
  5  9  2  0  0  0
  5 10  1  0  0  0
  6  9  1  0  0  0
  6 13  1  0  0  0
  7 19  1  0  0  0
  8 14  1  0  0  0
  8 15  1  0  0  0
  8 16  1  0  0  0
  9 17  1  0  0  0
 10 11  2  0  0  0
 10 18  1  0  0  0
M  END
>  <Name>
tox-631

>  <substance>
Vanillin

>  <CASRN>
121-33-5

>  <from_NCI>
1

>  <RBA>
0.000000

>  <method>
RUC

>  <chemical_class>
Alkoxyphenol

>  <set>
2

$$$$
tox-632
  Cerius2 12190218273D 1   1.00000                          
 Structure written by MMmdl.
 27 28  0  0  0  0  0  0  0  0999 V2000
   -0.6884    0.2507    0.2179 N   0  0  0  0  0  0
    0.5905    0.8880    0.3201 C   0  0  0  0  0  0
   -0.9931   -0.7964   -0.6196 C   0  0  0  0  0  0
   -1.8005    0.5812    0.9419 C   0  0  0  0  0  0
    0.7412    2.1420    0.9376 C   0  0  0  0  0  0
    1.7539    0.2889   -0.1935 C   0  0  0  0  0  0
   -2.4608   -1.1358   -0.3984 C   0  0  0  0  0  0
   -0.2745   -1.3678   -1.4363 O   0  0  0  0  0  0
   -2.8630   -0.2141    0.6166 O   0  0  0  0  0  0
   -1.9317    1.4313    1.8156 O   0  0  0  0  0  0
    1.9937    2.7613    1.0336 C   0  0  0  0  0  0
    3.0025    0.9149   -0.0912 C   0  0  0  0  0  0
   -2.5995   -2.5309    0.1661 C   0  0  0  0  0  0
   -3.2588   -0.8286   -1.6648 C   0  0  0  0  0  0
    3.1303    2.1529    0.5214 C   0  0  0  0  0  0
    2.1250    4.3041    1.7913 Cl  0  0  0  0  0  0
    4.4013    0.1344   -0.7278 Cl  0  0  0  0  0  0
   -3.2999   -3.5533   -0.3467 C   0  0  0  0  0  0
   -0.1103    2.6873    1.3336 H   0  0  0  0  0  0
    1.7296   -0.6915   -0.6593 H   0  0  0  0  0  0
   -2.0611   -2.7132    1.0972 H   0  0  0  0  0  0
   -4.3350   -0.9405   -1.4899 H   0  0  0  0  0  0
   -2.9664   -1.4751   -2.4992 H   0  0  0  0  0  0
   -3.1038    0.2102   -1.9808 H   0  0  0  0  0  0
    4.1000    2.6358    0.5984 H   0  0  0  0  0  0
   -3.3207   -4.5167    0.1579 H   0  0  0  0  0  0
   -3.8689   -3.4751   -1.2684 H   0  0  0  0  0  0
  1  2  1  0  0  0
  1  3  1  0  0  0
  1  4  1  0  0  0
  2  5  2  0  0  0
  2  6  1  0  0  0
  3  7  1  0  0  0
  3  8  2  0  0  0
  4  9  1  0  0  0
  4 10  2  0  0  0
  5 11  1  0  0  0
  5 19  1  0  0  0
  6 12  2  0  0  0
  6 20  1  0  0  0
  7  9  1  0  0  0
  7 13  1  0  0  0
  7 14  1  0  0  0
 11 15  2  0  0  0
 11 16  1  0  0  0
 12 15  1  0  0  0
 12 17  1  0  0  0
 13 18  2  0  0  0
 13 21  1  0  0  0
 14 22  1  0  0  0
 14 23  1  0  0  0
 14 24  1  0  0  0
 15 25  1  0  0  0
 18 26  1  0  0  0
 18 27  1  0  0  0
M  END
>  <Name>
tox-632

>  <substance>
Vinclozolin

>  <CASRN>
50471-44-8

>  <from_NCI>
1

>  <RBA>
0.000200

>  <method>
RUC,RUC

>  <chemical_class>
Organochlorine

>  <set>
1

$$$$
tox-633
  Cerius2 12190218273D 1   1.00000                          
 Structure written by MMmdl.
 49 50  0  0  0  0  0  0  0  0999 V2000
   -1.9051   -0.5665   -0.2312 C   0  0  0  0  0  0
   -1.7935    0.8406   -0.4006 C   0  0  0  0  0  0
   -3.1129   -1.0842    0.2782 C   0  0  0  0  0  0
   -0.8068   -1.5547   -0.6045 C   0  0  0  0  0  0
   -2.8565    1.7384   -0.0761 C   0  0  0  0  0  0
   -0.5391    1.3969   -0.9945 C   0  0  0  0  0  0
   -4.2064   -0.2851    0.6430 C   0  0  0  0  0  0
   -0.3521   -2.4596    0.5613 C   0  0  0  0  0  0
   -4.0169    1.1043    0.4456 C   0  0  0  0  0  0
   -2.8285    3.0075   -0.2340 O   0  0  0  0  0  0
    0.2195    1.9462   -0.0084 O   0  0  0  0  0  0
   -0.2375    1.2897   -2.1746 O   0  0  0  0  0  0
   -5.2862   -0.7709    1.1080 O   0  0  0  0  0  0
    1.0250   -3.1285    0.3537 C   0  0  0  0  0  0
    1.5927    2.3019   -0.3414 C   0  0  0  0  0  0
    2.1345   -2.0793    0.3574 C   0  0  0  0  0  0
    2.3943    0.9985   -0.3242 C   0  0  0  0  0  0
    2.0601    3.2995    0.7079 C   0  0  0  0  0  0
    3.5752   -2.5800    0.3054 C   0  0  0  0  0  0
    3.9113    1.0556   -0.4245 C   0  0  0  0  0  0
    4.6993   -1.4792    0.3591 C   0  0  0  0  0  0
    4.5826   -0.3247   -0.7044 C   0  0  0  0  0  0
    4.7953   -0.9916    1.5842 O   0  0  0  0  0  0
   -3.2023   -2.1692    0.3891 H   0  0  0  0  0  0
    0.0447   -1.0156   -1.0157 H   0  0  0  0  0  0
   -1.1757   -2.1830   -1.4257 H   0  0  0  0  0  0
   -1.0974   -3.2499    0.7135 H   0  0  0  0  0  0
   -0.3234   -1.8793    1.4928 H   0  0  0  0  0  0
   -4.8593    1.7586    0.7145 H   0  0  0  0  0  0
    1.0341   -3.6919   -0.5861 H   0  0  0  0  0  0
    1.1965   -3.8431    1.1670 H   0  0  0  0  0  0
    1.6267    2.7758   -1.3296 H   0  0  0  0  0  0
    2.0075   -1.4607    1.2504 H   0  0  0  0  0  0
    1.9924   -1.4840   -0.5377 H   0  0  0  0  0  0
    2.0263    0.4016   -1.1635 H   0  0  0  0  0  0
    2.1287    0.4840    0.6008 H   0  0  0  0  0  0
    3.0757    3.6511    0.5051 H   0  0  0  0  0  0
    2.0331    2.8577    1.7102 H   0  0  0  0  0  0
    1.3924    4.1677    0.7301 H   0  0  0  0  0  0
    3.6976   -3.1359   -0.6349 H   0  0  0  0  0  0
    3.7335   -3.3140    1.1083 H   0  0  0  0  0  0
    4.3399    1.5062    0.4773 H   0  0  0  0  0  0
    4.1743    1.7221   -1.2560 H   0  0  0  0  0  0
    5.5689   -2.0489   -0.0116 H   0  0  0  0  0  0
    5.6195   -0.0709   -0.9773 H   0  0  0  0  0  0
    4.1497   -0.7432   -1.6234 H   0  0  0  0  0  0
   -3.5661    3.3415    0.0246 H   0  0  0  0  0  0
   -5.8330   -0.1410    1.2715 H   0  0  0  0  0  0
    5.4035   -0.3983    1.6061 H   0  0  0  0  0  0
  1  2  2  0  0  0
  1  3  1  0  0  0
  1  4  1  0  0  0
  2  5  1  0  0  0
  2  6  1  0  0  0
  3  7  2  0  0  0
  3 24  1  0  0  0
  4  8  1  0  0  0
  4 25  1  0  0  0
  4 26  1  0  0  0
  5  9  2  0  0  0
  5 10  1  0  0  0
  6 11  1  0  0  0
  6 12  2  0  0  0
  7  9  1  0  0  0
  7 13  1  0  0  0
  8 14  1  0  0  0
  8 27  1  0  0  0
  8 28  1  0  0  0
  9 29  1  0  0  0
 10 47  1  0  0  0
 11 15  1  0  0  0
 13 48  1  0  0  0
 14 16  1  0  0  0
 14 30  1  0  0  0
 14 31  1  0  0  0
 15 17  1  0  0  0
 15 18  1  0  0  0
 15 32  1  0  0  0
 16 19  1  0  0  0
 16 33  1  0  0  0
 16 34  1  0  0  0
 17 20  1  0  0  0
 17 35  1  0  0  0
 17 36  1  0  0  0
 18 37  1  0  0  0
 18 38  1  0  0  0
 18 39  1  0  0  0
 19 21  1  0  0  0
 19 40  1  0  0  0
 19 41  1  0  0  0
 20 22  1  0  0  0
 20 42  1  0  0  0
 20 43  1  0  0  0
 21 22  1  0  0  0
 21 23  1  0  0  0
 21 44  1  0  0  0
 22 45  1  0  0  0
 22 46  1  0  0  0
 23 49  1  0  0  0
M  END
>  <Name>
tox-633

>  <substance>
a-Zearalanol

>  <CASRN>
26538-44-3

>  <from_NCI>
1

>  <RBA>
30.000000

>  <method>
RUC

>  <chemical_class>
Resorcylic acid lactone; Phenol

>  <set>
0

$$$$
tox-634
  Cerius2 12190218273D 1   1.00000                          
 Structure written by MMmdl.
 49 50  0  0  0  0  0  0  0  0999 V2000
   -3.9805    0.3567   -1.5389 C   0  0  0  0  0  0
   -4.3910   -1.1529   -1.5836 C   0  0  0  0  0  0
   -3.4724   -2.0657   -0.7140 C   0  0  0  0  0  0
   -2.5059    0.7154   -1.8384 C   0  0  0  0  0  0
   -2.0852    1.9997   -1.1064 C   0  0  0  0  0  0
   -3.4824   -1.7017    0.7843 C   0  0  0  0  0  0
   -2.1938   -2.0637    1.5346 C   0  0  0  0  0  0
   -0.6109    2.3973   -1.2850 C   0  0  0  0  0  0
    0.2822    1.3557   -0.8307 O   0  0  0  0  0  0
   -0.9746   -1.3169    0.9806 C   0  0  0  0  0  0
    0.1344   -1.1298    2.0141 C   0  0  0  0  0  0
    0.6647    1.3887    0.4739 C   0  0  0  0  0  0
    1.7611    0.3935    0.6809 C   0  0  0  0  0  0
    1.4843   -0.7929    1.4030 C   0  0  0  0  0  0
    2.5287   -1.7224    1.5920 C   0  0  0  0  0  0
    3.8336   -1.5332    1.1157 C   0  0  0  0  0  0
    4.0391   -0.3134    0.4296 C   0  0  0  0  0  0
    3.0686    0.6957    0.1828 C   0  0  0  0  0  0
   -4.3201   -1.5770   -2.8367 O   0  0  0  0  0  0
   -0.2587    2.6833   -2.7408 C   0  0  0  0  0  0
    0.2038    2.0984    1.3554 O   0  0  0  0  0  0
    3.4003    1.7712   -0.4256 O   0  0  0  0  0  0
    4.7603   -2.3859    1.2941 O   0  0  0  0  0  0
   -4.2393    0.7403   -0.5439 H   0  0  0  0  0  0
   -4.6183    0.9345   -2.2249 H   0  0  0  0  0  0
   -5.3722   -1.1804   -1.0841 H   0  0  0  0  0  0
   -2.4509   -2.0698   -1.1095 H   0  0  0  0  0  0
   -3.8085   -3.1105   -0.7965 H   0  0  0  0  0  0
   -2.3937    0.8439   -2.9209 H   0  0  0  0  0  0
   -1.8309   -0.0915   -1.5515 H   0  0  0  0  0  0
   -2.2711    1.8591   -0.0344 H   0  0  0  0  0  0
   -2.7251    2.8279   -1.4349 H   0  0  0  0  0  0
   -4.3271   -2.2140    1.2616 H   0  0  0  0  0  0
   -3.6583   -0.6331    0.9347 H   0  0  0  0  0  0
   -2.0190   -3.1449    1.4892 H   0  0  0  0  0  0
   -2.3367   -1.8065    2.5914 H   0  0  0  0  0  0
   -0.4226    3.3157   -0.7138 H   0  0  0  0  0  0
   -1.2946   -0.3310    0.6389 H   0  0  0  0  0  0
   -0.5871   -1.8553    0.1075 H   0  0  0  0  0  0
    0.2219   -2.0477    2.6096 H   0  0  0  0  0  0
   -0.1394   -0.3422    2.7271 H   0  0  0  0  0  0
    2.3081   -2.6420    2.1438 H   0  0  0  0  0  0
    5.0558   -0.1244    0.0547 H   0  0  0  0  0  0
    0.7693    3.0560   -2.8112 H   0  0  0  0  0  0
   -0.9277    3.4324   -3.1746 H   0  0  0  0  0  0
   -0.2955    1.7746   -3.3505 H   0  0  0  0  0  0
   -4.5415   -2.3969   -2.8713 H   0  0  0  0  0  0
    4.2243    1.7377   -0.6314 H   0  0  0  0  0  0
    5.4784   -2.1026    0.9382 H   0  0  0  0  0  0
  1  2  1  0  0  0
  1  4  1  0  0  0
  1 24  1  0  0  0
  1 25  1  0  0  0
  2  3  1  0  0  0
  2 19  1  0  0  0
  2 26  1  0  0  0
  3  6  1  0  0  0
  3 27  1  0  0  0
  3 28  1  0  0  0
  4  5  1  0  0  0
  4 29  1  0  0  0
  4 30  1  0  0  0
  5  8  1  0  0  0
  5 31  1  0  0  0
  5 32  1  0  0  0
  6  7  1  0  0  0
  6 33  1  0  0  0
  6 34  1  0  0  0
  7 10  1  0  0  0
  7 35  1  0  0  0
  7 36  1  0  0  0
  8  9  1  0  0  0
  8 20  1  0  0  0
  8 37  1  0  0  0
  9 12  1  0  0  0
 10 11  1  0  0  0
 10 38  1  0  0  0
 10 39  1  0  0  0
 11 14  1  0  0  0
 11 40  1  0  0  0
 11 41  1  0  0  0
 12 13  1  0  0  0
 12 21  2  0  0  0
 13 14  2  0  0  0
 13 18  1  0  0  0
 14 15  1  0  0  0
 15 16  2  0  0  0
 15 42  1  0  0  0
 16 17  1  0  0  0
 16 23  1  0  0  0
 17 18  2  0  0  0
 17 43  1  0  0  0
 18 22  1  0  0  0
 19 47  1  0  0  0
 20 44  1  0  0  0
 20 45  1  0  0  0
 20 46  1  0  0  0
 22 48  1  0  0  0
 23 49  1  0  0  0
M  END
>  <Name>
tox-634

>  <substance>
b-Zearalanol

>  <CASRN>
42422-68-4

>  <from_NCI>
1

>  <RBA>
8.300000

>  <method>
hERa,RUC

>  <chemical_class>
Resorcylic acid lactone; Phenol

>  <set>
0

$$$$
tox-635
  Cerius2 12190218273D 1   1.00000                          
 Structure written by MMmdl.
 47 48  0  0  0  0  0  0  0  0999 V2000
   -4.5779    0.6267   -0.1395 C   0  0  0  0  0  0
   -4.8439   -0.2415    1.1133 C   0  0  0  0  0  0
   -4.1704   -1.6317    1.2303 C   0  0  0  0  0  0
   -3.5688    1.8080   -0.0143 C   0  0  0  0  0  0
   -2.1063    1.3855   -0.2138 C   0  0  0  0  0  0
   -2.6950   -1.3707    1.1219 C   0  0  0  0  0  0
   -1.5241   -2.3300    1.3151 C   0  0  0  0  0  0
   -0.9693    2.4004   -0.3502 C   0  0  0  0  0  0
    0.2583    1.6146   -0.5472 O   0  0  0  0  0  0
   -0.3165   -1.4321    0.9431 C   0  0  0  0  0  0
    1.1030   -1.9142    1.1104 C   0  0  0  0  0  0
    0.9842    1.2308    0.5448 C   0  0  0  0  0  0
    2.1375    0.3525    0.1277 C   0  0  0  0  0  0
    2.1659   -1.0513    0.4068 C   0  0  0  0  0  0
    3.3277   -1.7734    0.0362 C   0  0  0  0  0  0
    4.4413   -1.2106   -0.6010 C   0  0  0  0  0  0
    4.3394    0.1766   -0.8392 C   0  0  0  0  0  0
    3.2465    1.0197   -0.4984 C   0  0  0  0  0  0
   -1.1306    3.2950   -1.5683 C   0  0  0  0  0  0
    0.7509    1.5351    1.7065 O   0  0  0  0  0  0
    3.3158    2.2747   -0.7405 O   0  0  0  0  0  0
    5.4630   -1.8927   -0.9302 O   0  0  0  0  0  0
   -5.5950    0.1670    2.0091 O   0  0  0  0  0  0
   -5.5564    1.0542   -0.3980 H   0  0  0  0  0  0
   -4.3205   -0.0254   -0.9815 H   0  0  0  0  0  0
   -4.5425   -2.2826    0.4345 H   0  0  0  0  0  0
   -4.4242   -2.0719    2.1993 H   0  0  0  0  0  0
   -3.6827    2.2963    0.9599 H   0  0  0  0  0  0
   -3.8267    2.5453   -0.7827 H   0  0  0  0  0  0
   -2.0423    0.6934   -1.0626 H   0  0  0  0  0  0
   -1.8248    0.8459    0.6798 H   0  0  0  0  0  0
   -2.5146   -0.5508    1.8286 H   0  0  0  0  0  0
   -2.5778   -1.0293    0.0922 H   0  0  0  0  0  0
   -1.5941   -3.1931    0.6470 H   0  0  0  0  0  0
   -1.4587   -2.6764    2.3505 H   0  0  0  0  0  0
   -0.8778    3.0181    0.5504 H   0  0  0  0  0  0
   -0.4016   -0.5481    1.5779 H   0  0  0  0  0  0
   -0.4419   -1.1221   -0.1027 H   0  0  0  0  0  0
    1.1530   -2.9349    0.7101 H   0  0  0  0  0  0
    1.3583   -1.9697    2.1755 H   0  0  0  0  0  0
    3.3572   -2.8454    0.2620 H   0  0  0  0  0  0
    5.2006    0.6564   -1.3276 H   0  0  0  0  0  0
   -0.2482    3.9326   -1.6896 H   0  0  0  0  0  0
   -2.0113    3.9375   -1.4820 H   0  0  0  0  0  0
   -1.2158    2.7009   -2.4849 H   0  0  0  0  0  0
    4.0586    2.4505   -1.1145 H   0  0  0  0  0  0
    6.0340   -1.3856   -1.3035 H   0  0  0  0  0  0
  1  2  1  0  0  0
  1  4  1  0  0  0
  1 24  1  0  0  0
  1 25  1  0  0  0
  2  3  1  0  0  0
  2 23  2  0  0  0
  3  6  1  0  0  0
  3 26  1  0  0  0
  3 27  1  0  0  0
  4  5  1  0  0  0
  4 28  1  0  0  0
  4 29  1  0  0  0
  5  8  1  0  0  0
  5 30  1  0  0  0
  5 31  1  0  0  0
  6  7  1  0  0  0
  6 32  1  0  0  0
  6 33  1  0  0  0
  7 10  1  0  0  0
  7 34  1  0  0  0
  7 35  1  0  0  0
  8  9  1  0  0  0
  8 19  1  0  0  0
  8 36  1  0  0  0
  9 12  1  0  0  0
 10 11  1  0  0  0
 10 37  1  0  0  0
 10 38  1  0  0  0
 11 14  1  0  0  0
 11 39  1  0  0  0
 11 40  1  0  0  0
 12 13  1  0  0  0
 12 20  2  0  0  0
 13 14  2  0  0  0
 13 18  1  0  0  0
 14 15  1  0  0  0
 15 16  2  0  0  0
 15 41  1  0  0  0
 16 17  1  0  0  0
 16 22  1  0  0  0
 17 18  2  0  0  0
 17 42  1  0  0  0
 18 21  1  0  0  0
 19 43  1  0  0  0
 19 44  1  0  0  0
 19 45  1  0  0  0
 21 46  1  0  0  0
 22 47  1  0  0  0
M  END
>  <Name>
tox-635

>  <substance>
Zearalanone

>  <CASRN>
5975-78-0

>  <from_NCI>
1

>  <RBA>
2.100000

>  <method>
RUC

>  <chemical_class>
Resorcylic acid lactone; Phenol

>  <set>
1

$$$$
tox-636
  Cerius2 12190218273D 1   1.00000                          
 Structure written by MMmdl.
 47 48  0  0  0  0  0  0  0  0999 V2000
   -1.5312   -1.8124    2.7221 C   0  0  0  0  0  0
   -1.9654   -3.0429    1.8710 C   0  0  0  0  0  0
   -0.9819   -3.3468    0.6966 C   0  0  0  0  0  0
   -1.4874   -0.5033    1.9121 C   0  0  0  0  0  0
   -1.0431    0.7009    2.7533 C   0  0  0  0  0  0
    0.5043   -3.5546    1.0594 C   0  0  0  0  0  0
    1.4341   -3.5083   -0.1587 C   0  0  0  0  0  0
    0.4806    0.7896    2.9405 C   0  0  0  0  0  0
    1.0673    1.0563    1.6463 O   0  0  0  0  0  0
    1.6545   -2.0996   -0.6407 C   0  0  0  0  0  0
    2.7643   -1.3982   -0.3640 C   0  0  0  0  0  0
    2.3875    0.7758    1.4951 C   0  0  0  0  0  0
    2.7818    1.0879    0.0919 C   0  0  0  0  0  0
    2.9425   -0.0025   -0.7903 C   0  0  0  0  0  0
    3.3000    0.2453   -2.1260 C   0  0  0  0  0  0
    3.5223    1.5361   -2.6304 C   0  0  0  0  0  0
    3.3644    2.5791   -1.6819 C   0  0  0  0  0  0
    3.0052    2.4379   -0.3124 C   0  0  0  0  0  0
    3.1404    0.3067    2.3362 O   0  0  0  0  0  0
    2.9166    3.4642    0.4456 O   0  0  0  0  0  0
    3.8469    1.7538   -3.8411 O   0  0  0  0  0  0
    0.8190    1.9347    3.8934 C   0  0  0  0  0  0
   -2.0254   -4.0954    2.6735 O   0  0  0  0  0  0
   -0.5617   -1.9844    3.2054 H   0  0  0  0  0  0
   -2.2498   -1.6706    3.5437 H   0  0  0  0  0  0
   -2.8934   -2.7284    1.3681 H   0  0  0  0  0  0
   -1.0618   -2.5244   -0.0245 H   0  0  0  0  0  0
   -1.3289   -4.2354    0.1484 H   0  0  0  0  0  0
   -2.4965   -0.3033    1.5306 H   0  0  0  0  0  0
   -0.8340   -0.6011    1.0403 H   0  0  0  0  0  0
   -1.5481    0.6766    3.7262 H   0  0  0  0  0  0
   -1.3828    1.6066    2.2338 H   0  0  0  0  0  0
    0.6122   -4.5347    1.5401 H   0  0  0  0  0  0
    0.8411   -2.8091    1.7869 H   0  0  0  0  0  0
    1.0328   -4.1164   -0.9775 H   0  0  0  0  0  0
    2.3956   -3.9578    0.1197 H   0  0  0  0  0  0
    0.8657   -0.1560    3.3393 H   0  0  0  0  0  0
    0.8504   -1.6487   -1.2206 H   0  0  0  0  0  0
    3.5721   -1.8217    0.2300 H   0  0  0  0  0  0
    3.4147   -0.6116   -2.7963 H   0  0  0  0  0  0
    3.5419    3.6030   -2.0431 H   0  0  0  0  0  0
    1.9009    2.0179    4.0381 H   0  0  0  0  0  0
    0.3538    1.7859    4.8726 H   0  0  0  0  0  0
    0.4833    2.8946    3.4855 H   0  0  0  0  0  0
    3.0906    4.1643   -0.0039 H   0  0  0  0  0  0
    3.9389    2.5898   -3.9638 H   0  0  0  0  0  0
   -2.2613   -4.7791    2.2269 H   0  0  0  0  0  0
  1  2  1  0  0  0
  1  4  1  0  0  0
  1 24  1  0  0  0
  1 25  1  0  0  0
  2  3  1  0  0  0
  2 23  1  0  0  0
  2 26  1  0  0  0
  3  6  1  0  0  0
  3 27  1  0  0  0
  3 28  1  0  0  0
  4  5  1  0  0  0
  4 29  1  0  0  0
  4 30  1  0  0  0
  5  8  1  0  0  0
  5 31  1  0  0  0
  5 32  1  0  0  0
  6  7  1  0  0  0
  6 33  1  0  0  0
  6 34  1  0  0  0
  7 10  1  0  0  0
  7 35  1  0  0  0
  7 36  1  0  0  0
  8  9  1  0  0  0
  8 22  1  0  0  0
  8 37  1  0  0  0
  9 12  1  0  0  0
 10 11  2  0  0  0
 10 38  1  0  0  0
 11 14  1  0  0  0
 11 39  1  0  0  0
 12 13  1  0  0  0
 12 19  2  0  0  0
 13 14  2  0  0  0
 13 18  1  0  0  0
 14 15  1  0  0  0
 15 16  2  0  0  0
 15 40  1  0  0  0
 16 17  1  0  0  0
 16 21  1  0  0  0
 17 18  2  0  0  0
 17 41  1  0  0  0
 18 20  1  0  0  0
 20 45  1  0  0  0
 21 46  1  0  0  0
 22 42  1  0  0  0
 22 43  1  0  0  0
 22 44  1  0  0  0
 23 47  1  0  0  0
M  END
>  <Name>
tox-636

>  <substance>
a-Zearalenol

>  <CASRN>
36455-72-8

>  <from_NCI>
1

>  <RBA>
48.000000

>  <method>
GST-hERadef,GST-mERadef,RUC

>  <chemical_class>
Resorcylic acid lactone; Phenol

>  <set>
2

$$$$
tox-637
  Cerius2 12190218273D 1   1.00000                          
 Structure written by MMmdl.
 45 46  0  0  0  0  0  0  0  0999 V2000
   -1.9923    0.5303   -0.9033 C   0  0  0  0  0  0
   -1.9462   -0.2821    0.2545 C   0  0  0  0  0  0
   -0.9703    1.5379   -1.2740 C   0  0  0  0  0  0
   -3.0814    0.4570   -1.7983 C   0  0  0  0  0  0
   -3.0403   -1.1722    0.5365 C   0  0  0  0  0  0
   -0.8083   -0.1683    1.2163 C   0  0  0  0  0  0
    0.2363    0.9467   -1.4065 O   0  0  0  0  0  0
   -1.2457    2.6976   -1.5477 O   0  0  0  0  0  0
   -4.1640   -0.4066   -1.6145 C   0  0  0  0  0  0
   -4.0855   -1.1851   -0.4378 C   0  0  0  0  0  0
   -3.1486   -1.9137    1.5751 O   0  0  0  0  0  0
    0.0712   -1.1672    1.4220 C   0  0  0  0  0  0
    1.3162    1.7116   -2.0028 C   0  0  0  0  0  0
   -5.1377   -0.4778   -2.4292 O   0  0  0  0  0  0
    1.0959   -1.2117    2.5284 C   0  0  0  0  0  0
    2.4673    0.7151   -2.2604 C   0  0  0  0  0  0
    1.7570    2.8606   -1.0944 C   0  0  0  0  0  0
    2.5635   -1.1223    2.0940 C   0  0  0  0  0  0
    2.9757    0.1073   -0.9536 C   0  0  0  0  0  0
    3.0067   -2.2016    1.1018 C   0  0  0  0  0  0
    3.8546   -1.1231   -1.1155 C   0  0  0  0  0  0
    4.1751   -1.7326    0.2453 C   0  0  0  0  0  0
    5.3420   -1.8460    0.6377 O   0  0  0  0  0  0
   -3.0695    1.1078   -2.6777 H   0  0  0  0  0  0
   -0.7814    0.7439    1.8078 H   0  0  0  0  0  0
   -4.9270   -1.8680   -0.2459 H   0  0  0  0  0  0
   -0.0218   -2.0752    0.8264 H   0  0  0  0  0  0
    0.9763    2.1036   -2.9692 H   0  0  0  0  0  0
    0.9475   -2.1480    3.0813 H   0  0  0  0  0  0
    0.9002   -0.4048    3.2459 H   0  0  0  0  0  0
    3.2899    1.2088   -2.7898 H   0  0  0  0  0  0
    2.0929   -0.0904   -2.9042 H   0  0  0  0  0  0
    2.6974    3.3005   -1.4407 H   0  0  0  0  0  0
    1.8729    2.5311   -0.0566 H   0  0  0  0  0  0
    1.0084    3.6584   -1.0799 H   0  0  0  0  0  0
    3.1932   -1.2044    2.9899 H   0  0  0  0  0  0
    2.7563   -0.1151    1.7109 H   0  0  0  0  0  0
    2.1035   -0.1671   -0.3594 H   0  0  0  0  0  0
    3.5258    0.8631   -0.3801 H   0  0  0  0  0  0
    2.2055   -2.5084    0.4229 H   0  0  0  0  0  0
    3.3136   -3.1072    1.6378 H   0  0  0  0  0  0
    4.7933   -0.8581   -1.6140 H   0  0  0  0  0  0
    3.3607   -1.8903   -1.7215 H   0  0  0  0  0  0
   -3.8735   -2.3557    1.5334 H   0  0  0  0  0  0
   -5.6971   -1.0549   -2.1525 H   0  0  0  0  0  0
  1  2  2  0  0  0
  1  3  1  0  0  0
  1  4  1  0  0  0
  2  5  1  0  0  0
  2  6  1  0  0  0
  3  7  1  0  0  0
  3  8  2  0  0  0
  4  9  2  0  0  0
  4 24  1  0  0  0
  5 10  2  0  0  0
  5 11  1  0  0  0
  6 12  2  0  0  0
  6 25  1  0  0  0
  7 13  1  0  0  0
  9 10  1  0  0  0
  9 14  1  0  0  0
 10 26  1  0  0  0
 11 44  1  0  0  0
 12 15  1  0  0  0
 12 27  1  0  0  0
 13 16  1  0  0  0
 13 17  1  0  0  0
 13 28  1  0  0  0
 14 45  1  0  0  0
 15 18  1  0  0  0
 15 29  1  0  0  0
 15 30  1  0  0  0
 16 19  1  0  0  0
 16 31  1  0  0  0
 16 32  1  0  0  0
 17 33  1  0  0  0
 17 34  1  0  0  0
 17 35  1  0  0  0
 18 20  1  0  0  0
 18 36  1  0  0  0
 18 37  1  0  0  0
 19 21  1  0  0  0
 19 38  1  0  0  0
 19 39  1  0  0  0
 20 22  1  0  0  0
 20 40  1  0  0  0
 20 41  1  0  0  0
 21 22  1  0  0  0
 21 42  1  0  0  0
 21 43  1  0  0  0
 22 23  2  0  0  0
M  END
>  <Name>
tox-637

>  <substance>
Zearalenone

>  <CASRN>
17924-92-4

>  <from_NCI>
1

>  <RBA>
17.000000

>  <method>
GST-hERadef,GST-mERadef,hERa,hERa,hERa-FP,MCF-7 cytosol,RUC

>  <chemical_class>
Resorcylic acid lactone; Phenol

>  <set>
1

$$$$
tox-638
  Cerius2 12190218273D 1   1.00000                          
 Structure written by MMmdl.
 47 48  0  0  0  0  0  0  0  0999 V2000
   -2.2705   -1.2739    1.7969 C   0  0  0  0  0  0
   -1.9340   -2.7980    1.9212 C   0  0  0  0  0  0
   -1.0853   -3.2795    0.6970 C   0  0  0  0  0  0
   -1.0498   -0.3396    1.7673 C   0  0  0  0  0  0
   -0.4735   -0.0319    3.1539 C   0  0  0  0  0  0
    0.4143   -3.4333    1.0326 C   0  0  0  0  0  0
    1.3278   -3.3732   -0.1999 C   0  0  0  0  0  0
    1.0367    0.2739    3.1444 C   0  0  0  0  0  0
    1.3800    0.9919    1.9429 O   0  0  0  0  0  0
    1.4900   -1.9647   -0.7098 C   0  0  0  0  0  0
    2.5819   -1.2177   -0.4816 C   0  0  0  0  0  0
    2.6604    0.8431    1.5099 C   0  0  0  0  0  0
    2.7299    1.2435    0.0787 C   0  0  0  0  0  0
    2.6761    0.2002   -0.8758 C   0  0  0  0  0  0
    2.7318    0.5260   -2.2402 C   0  0  0  0  0  0
    2.8476    1.8462   -2.7057 C   0  0  0  0  0  0
    2.9092    2.8344   -1.6881 C   0  0  0  0  0  0
    2.8618    2.6148   -0.2837 C   0  0  0  0  0  0
   -3.0935   -3.4404    1.8802 O   0  0  0  0  0  0
    1.4271    1.0875    4.3746 C   0  0  0  0  0  0
    3.5953    0.3550    2.1291 O   0  0  0  0  0  0
    2.9432    3.5934    0.5354 O   0  0  0  0  0  0
    2.8993    2.1348   -3.9437 O   0  0  0  0  0  0
   -2.9337   -0.9611    2.6166 H   0  0  0  0  0  0
   -2.8349   -1.0991    0.8679 H   0  0  0  0  0  0
   -1.3044   -2.9020    2.8156 H   0  0  0  0  0  0
   -1.2214   -2.5879   -0.1441 H   0  0  0  0  0  0
   -1.4209   -4.2603    0.3267 H   0  0  0  0  0  0
   -1.3598    0.6125    1.3167 H   0  0  0  0  0  0
   -0.2861   -0.7424    1.1025 H   0  0  0  0  0  0
   -0.6543   -0.8568    3.8531 H   0  0  0  0  0  0
   -1.0242    0.8299    3.5533 H   0  0  0  0  0  0
    0.5520   -4.4042    1.5255 H   0  0  0  0  0  0
    0.7357   -2.6778    1.7582 H   0  0  0  0  0  0
    0.9369   -4.0092   -1.0022 H   0  0  0  0  0  0
    2.3085   -3.7824    0.0735 H   0  0  0  0  0  0
    1.5681   -0.6868    3.1532 H   0  0  0  0  0  0
    0.6422   -1.5422   -1.2474 H   0  0  0  0  0  0
    3.4270   -1.6141    0.0787 H   0  0  0  0  0  0
    2.6896   -0.2896   -2.9678 H   0  0  0  0  0  0
    3.0073    3.8781   -2.0219 H   0  0  0  0  0  0
    2.5069    1.2648    4.4015 H   0  0  0  0  0  0
    1.1402    0.5729    5.2968 H   0  0  0  0  0  0
    0.9498    2.0734    4.3572 H   0  0  0  0  0  0
   -2.9565   -4.2768    1.9450 H   0  0  0  0  0  0
    3.0160    4.3207    0.1016 H   0  0  0  0  0  0
    2.9684    2.9770   -4.0357 H   0  0  0  0  0  0
  1  2  1  0  0  0
  1  4  1  0  0  0
  1 24  1  0  0  0
  1 25  1  0  0  0
  2  3  1  0  0  0
  2 19  1  0  0  0
  2 26  1  0  0  0
  3  6  1  0  0  0
  3 27  1  0  0  0
  3 28  1  0  0  0
  4  5  1  0  0  0
  4 29  1  0  0  0
  4 30  1  0  0  0
  5  8  1  0  0  0
  5 31  1  0  0  0
  5 32  1  0  0  0
  6  7  1  0  0  0
  6 33  1  0  0  0
  6 34  1  0  0  0
  7 10  1  0  0  0
  7 35  1  0  0  0
  7 36  1  0  0  0
  8  9  1  0  0  0
  8 20  1  0  0  0
  8 37  1  0  0  0
  9 12  1  0  0  0
 10 11  2  0  0  0
 10 38  1  0  0  0
 11 14  1  0  0  0
 11 39  1  0  0  0
 12 13  1  0  0  0
 12 21  2  0  0  0
 13 14  2  0  0  0
 13 18  1  0  0  0
 14 15  1  0  0  0
 15 16  2  0  0  0
 15 40  1  0  0  0
 16 17  1  0  0  0
 16 23  1  0  0  0
 17 18  2  0  0  0
 17 41  1  0  0  0
 18 22  1  0  0  0
 19 45  1  0  0  0
 20 42  1  0  0  0
 20 43  1  0  0  0
 20 44  1  0  0  0
 22 46  1  0  0  0
 23 47  1  0  0  0
M  END
>  <Name>
tox-638

>  <substance>
b-Zearalenol

>  <CASRN>
71030-11-0

>  <from_NCI>
1

>  <RBA>
8.100000

>  <method>
GST-hERadef,GST-mERadef,RUC

>  <chemical_class>
Resorcylic acid lactone; Phenol

>  <set>
0

$$$$
