1
 OpenBabel11300911163D

 29 30  0  0  0  0  0  0  0  0999 V2000
    3.7919   -0.5177   -0.9628 C   0  0  0  0  0
    2.7176    0.0214   -0.0189 C   0  0  0  0  0
    2.6418    1.5715    0.0761 C   0  0  0  0  0
    2.3344    2.1723   -1.3037 C   0  0  0  0  0
    1.7129    1.5864   -2.1900 O   0  0  0  0  0
    2.7392    3.4635   -1.5083 N   0  0  0  0  0
    3.7822    4.0529   -0.8693 C   0  0  0  0  0
    4.3494    5.0324   -1.3418 O   0  0  0  0  0
    4.2419    3.4428    0.2527 N   0  0  0  0  0
    3.9758    2.1417    0.5819 C   0  0  0  0  0
    4.7684    1.5228    1.2914 O   0  0  0  0  0
    1.5027    1.9041    1.0824 C   0  0  0  0  0
    0.1719    2.0770    0.6550 C   0  0  0  0  0
   -0.8515    2.3475    1.5681 C   0  0  0  0  0
   -0.5724    2.4344    2.9279 C   0  0  0  0  0
    0.7285    2.2386    3.3779 C   0  0  0  0  0
    1.7535    1.9674    2.4676 C   0  0  0  0  0
    3.7590   -1.6123   -0.9712 H   0  0  0  0  0
    4.7966   -0.2226   -0.6480 H   0  0  0  0  0
    3.6417   -0.1768   -1.9907 H   0  0  0  0  0
    2.9007   -0.4073    0.9758 H   0  0  0  0  0
    1.7496   -0.3806   -0.3476 H   0  0  0  0  0
    2.5154    3.8557   -2.4128 H   0  0  0  0  0
    5.1096    3.8156    0.6137 H   0  0  0  0  0
   -0.1042    1.9872   -0.3945 H   0  0  0  0  0
   -1.8717    2.4783    1.2151 H   0  0  0  0  0
   -1.3702    2.6379    3.6372 H   0  0  0  0  0
    0.9476    2.2844    4.4420 H   0  0  0  0  0
    2.7491    1.7894    2.8717 H   0  0  0  0  0
  1  2  1  0  0  0
  1 18  1  0  0  0
  1 19  1  0  0  0
  1 20  1  0  0  0
  2  3  1  0  0  0
  2 21  1  0  0  0
  2 22  1  0  0  0
  3 10  1  0  0  0
  3  4  1  0  0  0
  3 12  1  0  0  0
  4  6  1  0  0  0
  4  5  2  0  0  0
  6  7  1  0  0  0
  6 23  1  0  0  0
  7  9  1  0  0  0
  7  8  2  0  0  0
  9 10  1  0  0  0
  9 24  1  0  0  0
 10 11  2  0  0  0
 12 13  2  0  0  0
 12 17  1  0  0  0
 13 14  1  0  0  0
 13 25  1  0  0  0
 14 15  2  0  0  0
 14 26  1  0  0  0
 15 16  1  0  0  0
 15 27  1  0  0  0
 16 17  2  0  0  0
 16 28  1  0  0  0
 17 29  1  0  0  0
M  END