5
 OpenBabel11300911503D

 34 34  0  0  0  0  0  0  0  0999 V2000
    0.5230    1.2586   -0.0574 C   0  0  0  0  0
    1.0043    2.3801   -0.1250 O   0  0  0  0  0
   -0.6892    1.0300   -0.6258 N   0  0  0  0  0
   -1.3037   -0.1787   -0.5677 C   0  0  0  0  0
   -2.3936   -0.3266   -1.0968 O   0  0  0  0  0
   -0.7336   -1.2260    0.0738 N   0  0  0  0  0
   -1.7773   -3.0724    0.1244 Na  0  0  0  0  0
    0.4714   -1.1427    0.6854 C   0  0  0  0  0
    0.9170   -2.1326    1.2479 O   0  0  0  0  0
    1.2852    0.1522    0.6788 C   0  0  0  0  0
    2.6763   -0.1463   -0.0287 C   0  0  0  0  0
    2.4702   -0.6801   -1.4812 C   0  0  0  0  0
    3.7678   -1.1053   -2.1909 C   0  0  0  0  0
    3.4732   -1.7184   -3.5572 C   0  0  0  0  0
    3.6589    1.0512   -0.0219 C   0  0  0  0  0
    1.4955    0.5878    2.1663 C   0  0  0  0  0
    0.1922    0.8167    2.9445 C   0  0  0  0  0
   -1.1639    1.8063   -1.1145 H   0  0  0  0  0
    3.1743   -0.9532    0.5558 H   0  0  0  0  0
    1.9573    0.0893   -2.0988 H   0  0  0  0  0
    1.8190   -1.5792   -1.4422 H   0  0  0  0  0
    4.3041   -1.8573   -1.5720 H   0  0  0  0  0
    4.4283   -0.2289   -2.3525 H   0  0  0  0  0
    2.8437   -2.6271   -3.4454 H   0  0  0  0  0
    4.4260   -2.0067   -4.0493 H   0  0  0  0  0
    2.9454   -0.9859   -4.2047 H   0  0  0  0  0
    3.3001    1.8848   -0.6570 H   0  0  0  0  0
    4.6538    0.7470   -0.4009 H   0  0  0  0  0
    3.8516    1.4220    1.0021 H   0  0  0  0  0
    2.0638    1.5380    2.2194 H   0  0  0  0  0
    2.0828   -0.1910    2.7012 H   0  0  0  0  0
   -0.4092    1.6249    2.4782 H   0  0  0  0  0
    0.4335    1.1196    3.9854 H   0  0  0  0  0
   -0.4165   -0.1102    2.9887 H   0  0  0  0  0
  1 10  1  0  0  0
  1  3  1  0  0  0
  1  2  2  0  0  0
  3  4  1  0  0  0
  3 18  1  0  0  0
  4  6  1  0  0  0
  4  5  2  0  0  0
  6  8  1  0  0  0
  6  7  1  0  0  0
  8 10  1  0  0  0
  8  9  2  0  0  0
 10 16  1  0  0  0
 10 11  1  0  0  0
 11 15  1  0  0  0
 11 12  1  0  0  0
 11 19  1  0  0  0
 12 13  1  0  0  0
 12 20  1  0  0  0
 12 21  1  0  0  0
 13 14  1  0  0  0
 13 22  1  0  0  0
 13 23  1  0  0  0
 14 24  1  0  0  0
 14 25  1  0  0  0
 14 26  1  0  0  0
 15 27  1  0  0  0
 15 28  1  0  0  0
 15 29  1  0  0  0
 16 17  1  0  0  0
 16 30  1  0  0  0
 16 31  1  0  0  0
 17 32  1  0  0  0
 17 33  1  0  0  0
 17 34  1  0  0  0
M  END