10
 OpenBabel11300911503D

 24 25  0  0  0  0  0  0  0  0999 V2000
   -1.5440   -0.6962    0.5855 C   0  0  0  0  0
   -0.5950   -1.3990   -0.3906 C   0  0  0  0  0
    0.3924   -0.3719   -0.8300 N   0  0  0  0  0
    0.2229    0.6127    0.0168 C   0  0  0  0  0
   -0.7467    0.4417    0.9781 N   0  0  0  0  0
    1.0333    1.8847   -0.0777 C   0  0  0  0  0
    0.1735    3.1002   -0.3310 C   0  0  0  0  0
   -0.5618    3.2110   -1.5202 C   0  0  0  0  0
   -1.3581    4.3319   -1.7580 C   0  0  0  0  0
   -1.4237    5.3543   -0.8135 C   0  0  0  0  0
   -0.6933    5.2574    0.3693 C   0  0  0  0  0
    0.1025    4.1359    0.6110 C   0  0  0  0  0
   -2.4529   -0.3632    0.0735 H   0  0  0  0  0
   -1.8148   -1.3297    1.4344 H   0  0  0  0  0
   -1.1373   -1.8033   -1.2506 H   0  0  0  0  0
   -0.0579   -2.2182    0.1007 H   0  0  0  0  0
   -1.2424    1.2802    1.2639 H   0  0  0  0  0
    1.7758    1.7925   -0.8788 H   0  0  0  0  0
    1.5864    1.9936    0.8630 H   0  0  0  0  0
   -0.5139    2.4211   -2.2676 H   0  0  0  0  0
   -1.9226    4.4087   -2.6835 H   0  0  0  0  0
   -2.0392    6.2296   -1.0019 H   0  0  0  0  0
   -0.7384    6.0585    1.1024 H   0  0  0  0  0
    0.6713    4.0795    1.5372 H   0  0  0  0  0
  1  5  1  0  0  0
  1  2  1  0  0  0
  1 13  1  0  0  0
  1 14  1  0  0  0
  2  3  1  0  0  0
  2 15  1  0  0  0
  2 16  1  0  0  0
  3  4  2  0  0  0
  4  5  1  0  0  0
  4  6  1  0  0  0
  5 17  1  0  0  0
  6  7  1  0  0  0
  6 18  1  0  0  0
  6 19  1  0  0  0
  7  8  2  0  0  0
  7 12  1  0  0  0
  8  9  1  0  0  0
  8 20  1  0  0  0
  9 10  2  0  0  0
  9 21  1  0  0  0
 10 11  1  0  0  0
 10 22  1  0  0  0
 11 12  2  0  0  0
 11 23  1  0  0  0
 12 24  1  0  0  0
M  END