11
 OpenBabel11300911503D

 15 14  0  0  0  0  0  0  0  0999 V2000
    1.4359   -0.5061    0.1115 O   0  0  0  0  0
    0.9103   -1.7993   -0.1778 C   0  0  0  0  0
   -0.5810   -1.7817    0.0908 C   0  0  0  0  0
    2.8452   -0.4512   -0.0961 C   0  0  0  0  0
    3.3185    0.9571    0.2019 C   0  0  0  0  0
    1.3943   -2.5480    0.4586 H   0  0  0  0  0
    1.0962   -2.0462   -1.2289 H   0  0  0  0  0
   -0.7811   -1.5276    1.1374 H   0  0  0  0  0
   -1.0290   -2.7553   -0.1274 H   0  0  0  0  0
   -1.0751   -1.0196   -0.5216 H   0  0  0  0  0
    3.0782   -0.7098   -1.1341 H   0  0  0  0  0
    3.3442   -1.1608    0.5726 H   0  0  0  0  0
    2.8176    1.6790   -0.4527 H   0  0  0  0  0
    4.3997    1.0444    0.0606 H   0  0  0  0  0
    3.0727    1.2382    1.2320 H   0  0  0  0  0
  1  4  1  0  0  0
  1  2  1  0  0  0
  2  3  1  0  0  0
  2  6  1  0  0  0
  2  7  1  0  0  0
  3  8  1  0  0  0
  3  9  1  0  0  0
  3 10  1  0  0  0
  4  5  1  0  0  0
  4 11  1  0  0  0
  4 12  1  0  0  0
  5 13  1  0  0  0
  5 14  1  0  0  0
  5 15  1  0  0  0
M  END