12
 OpenBabel11300911163D

 14 14  0  0  0  0  0  0  0  0999 V2000
    0.9989    0.0160    0.2646 N   0  0  0  0  0
    2.3729    0.0337   -0.0077 C   0  0  0  0  0
    3.0715    1.2438   -0.0249 C   0  0  0  0  0
    4.4609    1.2642   -0.1736 C   0  0  0  0  0
    5.1696    0.0684   -0.2621 C   0  0  0  0  0
    4.4900   -1.1446   -0.1821 C   0  0  0  0  0
    3.1006   -1.1591   -0.0334 C   0  0  0  0  0
    0.5151    0.8535   -0.0434 H   0  0  0  0  0
    0.5357   -0.8309   -0.0495 H   0  0  0  0  0
    2.5379    2.1847    0.0769 H   0  0  0  0  0
    4.9887    2.2135   -0.2043 H   0  0  0  0  0
    6.2503    0.0818   -0.3707 H   0  0  0  0  0
    5.0407   -2.0808   -0.2195 H   0  0  0  0  0
    2.5900   -2.1134    0.0617 H   0  0  0  0  0
  1  2  1  0  0  0
  1  8  1  0  0  0
  1  9  1  0  0  0
  2  3  2  0  0  0
  2  7  1  0  0  0
  3  4  1  0  0  0
  3 10  1  0  0  0
  4  5  2  0  0  0
  4 11  1  0  0  0
  5  6  1  0  0  0
  5 12  1  0  0  0
  6  7  2  0  0  0
  6 13  1  0  0  0
  7 14  1  0  0  0
M  END