14
 OpenBabel11300911513D

  9  8  0  0  0  0  0  0  0  0999 V2000
    0.9983    0.0087   -0.0087 O   0  0  0  0  0
    2.4195   -0.0036    0.0087 C   0  0  0  0  0
    2.9247    1.4228    0.0053 C   0  0  0  0  0
    0.7054   -0.9188   -0.0058 H   0  0  0  0  0
    2.7771   -0.5406   -0.8748 H   0  0  0  0  0
    2.7554   -0.5287    0.9078 H   0  0  0  0  0
    2.5684    1.9561   -0.8823 H   0  0  0  0  0
    4.0170    1.4495    0.0188 H   0  0  0  0  0
    2.5465    1.9680    0.8765 H   0  0  0  0  0
  1  2  1  0  0  0
  1  4  1  0  0  0
  2  3  1  0  0  0
  2  5  1  0  0  0
  2  6  1  0  0  0
  3  7  1  0  0  0
  3  8  1  0  0  0
  3  9  1  0  0  0
M  END