16
 OpenBabel11300911513D

 17 17  0  0  0  0  0  0  0  0999 V2000
    2.9207   -1.1144   -0.5781 O   0  0  0  0  0
    2.2870   -0.0864   -0.3657 C   0  0  0  0  0
    0.9333   -0.1327   -0.2119 N   0  0  0  0  0
    2.9569    1.2463   -0.2668 C   0  0  0  0  0
    2.2906    2.4586   -0.0252 C   0  0  0  0  0
    0.9292    2.4993    0.1420 O   0  0  0  0  0
    3.0067    3.6590    0.0505 C   0  0  0  0  0
    4.3922    3.6590   -0.1141 C   0  0  0  0  0
    5.0655    2.4645   -0.3541 C   0  0  0  0  0
    4.3524    1.2664   -0.4298 C   0  0  0  0  0
    0.4636   -1.0236   -0.2752 H   0  0  0  0  0
    0.4021    0.7133   -0.0356 H   0  0  0  0  0
    0.6613    3.4224    0.2978 H   0  0  0  0  0
    2.5044    4.6042    0.2368 H   0  0  0  0  0
    4.9483    4.5918   -0.0552 H   0  0  0  0  0
    6.1451    2.4610   -0.4828 H   0  0  0  0  0
    4.8924    0.3395   -0.6181 H   0  0  0  0  0
  1  2  2  0  0  0
  2  4  1  0  0  0
  2  3  1  0  0  0
  3 11  1  0  0  0
  3 12  1  0  0  0
  4  5  2  0  0  0
  4 10  1  0  0  0
  5  7  1  0  0  0
  5  6  1  0  0  0
  6 13  1  0  0  0
  7  8  2  0  0  0
  7 14  1  0  0  0
  8  9  1  0  0  0
  8 15  1  0  0  0
  9 10  2  0  0  0
  9 16  1  0  0  0
 10 17  1  0  0  0
M  END