18
 OpenBabel11300911513D

 25 26  0  0  0  0  0  0  0  0999 V2000
    3.1622   -3.9067    1.6093 O   0  0  0  0  0
    2.2806   -3.3344    0.9838 C   0  0  0  0  0
    2.3724   -1.9047    0.6264 C   0  0  0  0  0
    1.3402   -1.3179   -0.1090 C   0  0  0  0  0
    1.4265    0.0314   -0.4570 C   0  0  0  0  0
    2.5395    0.7892   -0.0795 C   0  0  0  0  0
    2.5043    2.1177   -0.4331 O   0  0  0  0  0
    3.6686    2.7695   -0.7671 C   0  0  0  0  0
    4.7094    2.1936   -1.4998 C   0  0  0  0  0
    5.8364    2.9534   -1.8226 C   0  0  0  0  0
    5.9096    4.2941   -1.4436 C   0  0  0  0  0
    4.8546    4.8798   -0.7454 C   0  0  0  0  0
    3.7342    4.1186   -0.4112 C   0  0  0  0  0
    3.5515    0.2074    0.6893 C   0  0  0  0  0
    3.4765   -1.1463    1.0285 C   0  0  0  0  0
    1.3721   -3.8677    0.6552 H   0  0  0  0  0
    0.4688   -1.8921   -0.4122 H   0  0  0  0  0
    0.6235    0.4982   -1.0225 H   0  0  0  0  0
    4.6559    1.1602   -1.8296 H   0  0  0  0  0
    6.6542    2.5018   -2.3784 H   0  0  0  0  0
    6.7842    4.8856   -1.7024 H   0  0  0  0  0
    4.9015    5.9290   -0.4656 H   0  0  0  0  0
    2.9083    4.5781    0.1253 H   0  0  0  0  0
    4.3991    0.7941    1.0335 H   0  0  0  0  0
    4.2733   -1.6031    1.6125 H   0  0  0  0  0
  1  2  2  0  0  0
  2  3  1  0  0  0
  2 16  1  0  0  0
  3  4  2  0  0  0
  3 15  1  0  0  0
  4  5  1  0  0  0
  4 17  1  0  0  0
  5  6  2  0  0  0
  5 18  1  0  0  0
  6 14  1  0  0  0
  6  7  1  0  0  0
  7  8  1  0  0  0
  8  9  2  0  0  0
  8 13  1  0  0  0
  9 10  1  0  0  0
  9 19  1  0  0  0
 10 11  2  0  0  0
 10 20  1  0  0  0
 11 12  1  0  0  0
 11 21  1  0  0  0
 12 13  2  0  0  0
 12 22  1  0  0  0
 13 23  1  0  0  0
 14 15  2  0  0  0
 14 24  1  0  0  0
 15 25  1  0  0  0
M  END