22
 OpenBabel11300911163D

  5  4  0  0  0  0  0  0  0  0999 V2000
    1.0057    0.0080    0.0129 C   0  0  0  0  0
    0.3864   -0.8683    1.4229 Cl  0  0  0  0  0
    0.3986    1.6726   -0.0013 Cl  0  0  0  0  0
    2.7774   -0.0085   -0.0013 Cl  0  0  0  0  0
    0.6498   -0.4955   -0.8884 H   0  0  0  0  0
  1  4  1  0  0  0
  1  3  1  0  0  0
  1  2  1  0  0  0
  1  5  1  0  0  0
M  END