24
 OpenBabel11300911163D

  8  7  0  0  0  0  0  0  0  0999 V2000
    1.0041    0.0039    0.0141 C   0  0  0  0  0
    0.4963   -0.7275   -1.2732 C   0  0  0  0  0
    1.0640    0.0805   -2.7944 Cl  0  0  0  0  0
    1.0681   -2.4464   -1.3603 Cl  0  0  0  0  0
   -1.3141   -0.7829   -1.3656 Cl  0  0  0  0  0
    0.4365   -0.8041    1.5353 Cl  0  0  0  0  0
    0.4323    1.7228    0.1011 Cl  0  0  0  0  0
    2.8145    0.0593    0.1065 Cl  0  0  0  0  0
  1  8  1  0  0  0
  1  7  1  0  0  0
  1  6  1  0  0  0
  1  2  1  0  0  0
  2  5  1  0  0  0
  2  4  1  0  0  0
  2  3  1  0  0  0
M  END