25
 OpenBabel11300911513D

 27 28  0  0  0  0  0  0  0  0999 V2000
    2.5105   -1.1378   -1.4982 O   0  0  0  0  0
    2.9700    0.0647   -1.0257 C   0  0  0  0  0
    2.2676    0.6913    0.0214 C   0  0  0  0  0
    2.7844    1.9064    0.5280 C   0  0  0  0  0
    3.9436    2.4748   -0.0388 C   0  0  0  0  0
    4.6063    1.8438   -1.0927 C   0  0  0  0  0
    4.6211    3.9676    0.5226 Cl  0  0  0  0  0
    2.0147    2.7079    1.8654 Cl  0  0  0  0  0
    1.0091    0.0398    0.5787 C   0  0  0  0  0
   -0.1321   -0.1355   -0.4154 C   0  0  0  0  0
   -0.6934   -1.3993   -0.7132 C   0  0  0  0  0
   -1.7452   -1.5072   -1.6464 C   0  0  0  0  0
   -2.2569   -0.3738   -2.2795 C   0  0  0  0  0
   -1.7292    0.8731   -1.9761 C   0  0  0  0  0
   -2.3771    2.2733   -2.7486 Cl  0  0  0  0  0
   -2.4710   -3.0241   -2.0636 Cl  0  0  0  0  0
   -0.1145   -2.8351    0.0791 Cl  0  0  0  0  0
   -0.6856    0.9926   -1.0510 C   0  0  0  0  0
   -0.1896    2.2332   -0.7411 O   0  0  0  0  0
    4.1212    0.6379   -1.5789 C   0  0  0  0  0
    4.9543   -0.1468   -2.8697 Cl  0  0  0  0  0
    3.1226   -1.4427   -2.1960 H   0  0  0  0  0
    5.4994    2.2885   -1.5238 H   0  0  0  0  0
    0.5921    0.5900    1.4280 H   0  0  0  0  0
    1.3301   -0.9096    1.0191 H   0  0  0  0  0
   -3.0681   -0.4649   -2.9973 H   0  0  0  0  0
   -0.6964    2.8975   -1.2461 H   0  0  0  0  0
  1  2  1  0  0  0
  1 22  1  0  0  0
  2  3  2  0  0  0
  2 20  1  0  0  0
  3  4  1  0  0  0
  3  9  1  0  0  0
  4  5  2  0  0  0
  4  8  1  0  0  0
  5  6  1  0  0  0
  5  7  1  0  0  0
  6 20  2  0  0  0
  6 23  1  0  0  0
  9 10  1  0  0  0
  9 24  1  0  0  0
  9 25  1  0  0  0
 10 11  2  0  0  0
 10 18  1  0  0  0
 11 12  1  0  0  0
 11 17  1  0  0  0
 12 13  2  0  0  0
 12 16  1  0  0  0
 13 14  1  0  0  0
 13 26  1  0  0  0
 14 18  2  0  0  0
 14 15  1  0  0  0
 18 19  1  0  0  0
 19 27  1  0  0  0
 20 21  1  0  0  0
M  END