27
 OpenBabel11300911163D

 12 11  0  0  0  0  0  0  0  0999 V2000
    0.9958    0.0121    0.0112 O   0  0  0  0  0
    2.4161   -0.0209    0.0145 C   0  0  0  0  0
    2.9412    1.4066   -0.0085 C   0  0  0  0  0
    4.4587    1.4503   -0.0064 C   0  0  0  0  0
    0.6892   -0.9105    0.0261 H   0  0  0  0  0
    2.7538   -0.5755   -0.8667 H   0  0  0  0  0
    2.7504   -0.5454    0.9152 H   0  0  0  0  0
    2.5516    1.9561    0.8570 H   0  0  0  0  0
    2.5549    1.9266   -0.8935 H   0  0  0  0  0
    4.8634    0.9699    0.8898 H   0  0  0  0  0
    4.8082    2.4874   -0.0231 H   0  0  0  0  0
    4.8668    0.9402   -0.8844 H   0  0  0  0  0
  1  2  1  0  0  0
  1  5  1  0  0  0
  2  3  1  0  0  0
  2  6  1  0  0  0
  2  7  1  0  0  0
  3  4  1  0  0  0
  3  8  1  0  0  0
  3  9  1  0  0  0
  4 10  1  0  0  0
  4 11  1  0  0  0
  4 12  1  0  0  0
M  END