28
 OpenBabel11300911513D

 15 14  0  0  0  0  0  0  0  0999 V2000
    0.7605    0.3053   -0.1252 O   0  0  0  0  0
    2.1313   -0.0603   -0.0488 C   0  0  0  0  0
    2.9767    1.2052   -0.0088 C   0  0  0  0  0
    4.4666    0.8849    0.0756 C   0  0  0  0  0
    5.3074    2.1510    0.1060 C   0  0  0  0  0
    0.2466   -0.5198   -0.1507 H   0  0  0  0  0
    2.3793   -0.6676   -0.9250 H   0  0  0  0  0
    2.2823   -0.6595    0.8546 H   0  0  0  0  0
    2.6710    1.8193    0.8477 H   0  0  0  0  0
    2.7675    1.8097   -0.9002 H   0  0  0  0  0
    4.7659    0.2754   -0.7846 H   0  0  0  0  0
    4.6701    0.2965    0.9774 H   0  0  0  0  0
    5.1527    2.7465   -0.7998 H   0  0  0  0  0
    6.3707    1.8990    0.1691 H   0  0  0  0  0
    5.0530    2.7708    0.9720 H   0  0  0  0  0
  1  2  1  0  0  0
  1  6  1  0  0  0
  2  3  1  0  0  0
  2  7  1  0  0  0
  2  8  1  0  0  0
  3  4  1  0  0  0
  3  9  1  0  0  0
  3 10  1  0  0  0
  4  5  1  0  0  0
  4 11  1  0  0  0
  4 12  1  0  0  0
  5 13  1  0  0  0
  5 14  1  0  0  0
  5 15  1  0  0  0
M  END