32
 OpenBabel11300911513D

  6  5  0  0  0  0  0  0  0  0999 V2000
    1.0000    0.0000    0.0000 C   0  0  0  0  0
   -0.1510    0.0000    0.0000 N   0  0  0  0  0
    2.4440    0.0000    0.0000 C   0  0  0  0  0
    2.8376    1.0215   -0.0117 H   0  0  0  0  0
    2.8376   -0.5209   -0.8788 H   0  0  0  0  0
    2.8376   -0.5006    0.8905 H   0  0  0  0  0
  1  3  1  0  0  0
  1  2  3  0  0  0
  3  4  1  0  0  0
  3  5  1  0  0  0
  3  6  1  0  0  0
M  END