36
 OpenBabel11300911173D

  9  8  0  0  0  0  0  0  0  0999 V2000
    3.1262   -0.8208    0.7455 F   0  0  0  0  0
    2.3184    0.0057    0.0410 C   0  0  0  0  0
    2.2780   -0.4419   -1.2312 F   0  0  0  0  0
    1.0741   -0.0962    0.5579 F   0  0  0  0  0
    2.8311    1.4414    0.1230 C   0  0  0  0  0
    4.1982    1.5938   -0.2875 O   0  0  0  0  0
    2.7577    1.8019    1.1538 H   0  0  0  0  0
    2.2200    2.0947   -0.5064 H   0  0  0  0  0
    4.7137    0.8861    0.1434 H   0  0  0  0  0
  1  2  1  0  0  0
  2  5  1  0  0  0
  2  4  1  0  0  0
  2  3  1  0  0  0
  5  6  1  0  0  0
  5  7  1  0  0  0
  5  8  1  0  0  0
  6  9  1  0  0  0
M  END