37
 OpenBabel11300911513D

 19 18  0  0  0  0  0  0  0  0999 V2000
    2.1748    0.7030    1.0383 O   0  0  0  0  0
    2.3062    0.0571   -0.0038 C   0  0  0  0  0
    3.0289   -1.3032   -0.0324 C   0  0  0  0  0
    3.9692   -1.3986   -1.2408 C   0  0  0  0  0
    3.8634   -1.4655    1.2500 C   0  0  0  0  0
    1.9782   -2.4188   -0.0910 C   0  0  0  0  0
    1.7180    0.5867   -1.2910 C   0  0  0  0  0
    3.4167   -1.3867   -2.1867 H   0  0  0  0  0
    4.5525   -2.3261   -1.2175 H   0  0  0  0  0
    4.6724   -0.5582   -1.2603 H   0  0  0  0  0
    3.2314   -1.4380    2.1453 H   0  0  0  0  0
    4.6012   -0.6602    1.3452 H   0  0  0  0  0
    4.4037   -2.4188    1.2559 H   0  0  0  0  0
    1.2713   -2.3393    0.7429 H   0  0  0  0  0
    2.4469   -3.4081   -0.0428 H   0  0  0  0  0
    1.3937   -2.3751   -1.0162 H   0  0  0  0  0
    1.0859    1.4530   -1.0708 H   0  0  0  0  0
    1.0969   -0.1731   -1.7681 H   0  0  0  0  0
    2.5182    0.9037   -1.9631 H   0  0  0  0  0
  1  2  2  0  0  0
  2  7  1  0  0  0
  2  3  1  0  0  0
  3  6  1  0  0  0
  3  5  1  0  0  0
  3  4  1  0  0  0
  4  8  1  0  0  0
  4  9  1  0  0  0
  4 10  1  0  0  0
  5 11  1  0  0  0
  5 12  1  0  0  0
  5 13  1  0  0  0
  6 14  1  0  0  0
  6 15  1  0  0  0
  6 16  1  0  0  0
  7 17  1  0  0  0
  7 18  1  0  0  0
  7 19  1  0  0  0
M  END