41
 OpenBabel11300911513D

 21 21  0  0  0  0  0  0  0  0999 V2000
    0.9935    0.0236    0.1037 O   0  0  0  0  0
    2.4196    0.0071    0.0369 C   0  0  0  0  0
    2.9208    0.1839    1.4144 C   0  0  0  0  0
    3.3169    0.3261    2.5398 C   0  0  0  0  0
    2.9025    1.1683   -0.8501 C   0  0  0  0  0
    2.5666    0.9695   -2.3291 C   0  0  0  0  0
    3.0620   -0.3767   -2.8468 C   0  0  0  0  0
    2.5480   -1.5351   -1.9988 C   0  0  0  0  0
    2.8883   -1.3490   -0.5196 C   0  0  0  0  0
    0.6415   -0.0773   -0.7937 H   0  0  0  0  0
    3.6533    0.4516    3.5423 H   0  0  0  0  0
    3.9904    1.2859   -0.7525 H   0  0  0  0  0
    2.4499    2.1114   -0.5173 H   0  0  0  0  0
    3.0201    1.7761   -2.9168 H   0  0  0  0  0
    1.4833    1.0454   -2.4798 H   0  0  0  0  0
    4.1589   -0.3850   -2.8476 H   0  0  0  0  0
    2.7422   -0.5114   -3.8863 H   0  0  0  0  0
    2.9863   -2.4736   -2.3579 H   0  0  0  0  0
    1.4628   -1.6299   -2.1237 H   0  0  0  0  0
    2.4283   -2.1693    0.0465 H   0  0  0  0  0
    3.9755   -1.4480   -0.3966 H   0  0  0  0  0
  1  2  1  0  0  0
  1 10  1  0  0  0
  2  5  1  0  0  0
  2  9  1  0  0  0
  2  3  1  0  0  0
  3  4  3  0  0  0
  4 11  1  0  0  0
  5  6  1  0  0  0
  5 12  1  0  0  0
  5 13  1  0  0  0
  6  7  1  0  0  0
  6 14  1  0  0  0
  6 15  1  0  0  0
  7  8  1  0  0  0
  7 16  1  0  0  0
  7 17  1  0  0  0
  8  9  1  0  0  0
  8 18  1  0  0  0
  8 19  1  0  0  0
  9 20  1  0  0  0
  9 21  1  0  0  0
M  END