42
 OpenBabel11300911513D

 15 14  0  0  0  0  0  0  0  0999 V2000
    0.9784   -0.0198   -0.0374 O   0  0  0  0  0
    2.3977   -0.0179    0.0399 C   0  0  0  0  0
    2.9189    1.4210    0.0246 C   0  0  0  0  0
    2.4203    2.2079    1.2380 C   0  0  0  0  0
    4.4449    1.4348   -0.0266 C   0  0  0  0  0
    0.6930   -0.9494   -0.0263 H   0  0  0  0  0
    2.7842   -0.5767   -0.8192 H   0  0  0  0  0
    2.6972   -0.5373    0.9570 H   0  0  0  0  0
    2.5328    1.9226   -0.8723 H   0  0  0  0  0
    2.7530    1.7460    2.1744 H   0  0  0  0  0
    1.3268    2.2585    1.2551 H   0  0  0  0  0
    2.7982    3.2359    1.2159 H   0  0  0  0  0
    4.8773    0.9494    0.8558 H   0  0  0  0  0
    4.8245    2.4616   -0.0680 H   0  0  0  0  0
    4.8095    0.9085   -0.9154 H   0  0  0  0  0
  1  2  1  0  0  0
  1  6  1  0  0  0
  2  3  1  0  0  0
  2  7  1  0  0  0
  2  8  1  0  0  0
  3  5  1  0  0  0
  3  4  1  0  0  0
  3  9  1  0  0  0
  4 10  1  0  0  0
  4 11  1  0  0  0
  4 12  1  0  0  0
  5 13  1  0  0  0
  5 14  1  0  0  0
  5 15  1  0  0  0
M  END