44
 OpenBabel11300911513D

 15 14  0  0  0  0  0  0  0  0999 V2000
    1.0307   -0.0011    0.0040 O   0  0  0  0  0
    2.4580    0.0369    0.0172 C   0  0  0  0  0
    2.9510   -0.7068   -1.2253 C   0  0  0  0  0
    4.4624   -0.8467   -1.2927 C   0  0  0  0  0
    2.9040    1.4929    0.0654 C   0  0  0  0  0
    0.7174    0.4359    0.8143 H   0  0  0  0  0
    2.7935   -0.4849    0.9209 H   0  0  0  0  0
    2.5861   -0.2065   -2.1302 H   0  0  0  0  0
    2.4999   -1.7067   -1.2413 H   0  0  0  0  0
    4.9516    0.1250   -1.4101 H   0  0  0  0  0
    4.7450   -1.4646   -2.1521 H   0  0  0  0  0
    4.8544   -1.3256   -0.3892 H   0  0  0  0  0
    2.5723    2.0326   -0.8279 H   0  0  0  0  0
    3.9903    1.5825    0.1485 H   0  0  0  0  0
    2.4537    2.0027    0.9246 H   0  0  0  0  0
  1  2  1  0  0  0
  1  6  1  0  0  0
  2  5  1  0  0  0
  2  3  1  0  0  0
  2  7  1  0  0  0
  3  4  1  0  0  0
  3  8  1  0  0  0
  3  9  1  0  0  0
  4 10  1  0  0  0
  4 11  1  0  0  0
  4 12  1  0  0  0
  5 13  1  0  0  0
  5 14  1  0  0  0
  5 15  1  0  0  0
M  END