46
 OpenBabel11300911173D

 14 13  0  0  0  0  0  0  0  0999 V2000
    0.9994    0.0466   -0.0442 O   0  0  0  0  0
    2.4289    0.0351    0.0079 C   0  0  0  0  0
    2.9517   -0.7343   -1.2195 C   0  0  0  0  0
    4.4083   -0.8657   -1.2618 N   0  0  0  0  0
    2.9193    1.4770    0.0637 C   0  0  0  0  0
    0.6858    0.4488    0.7841 H   0  0  0  0  0
    2.7221   -0.4921    0.9235 H   0  0  0  0  0
    2.6004   -0.2523   -2.1397 H   0  0  0  0  0
    2.5074   -1.7369   -1.2198 H   0  0  0  0  0
    4.8265    0.0473   -1.4361 H   0  0  0  0  0
    4.6609   -1.4419   -2.0646 H   0  0  0  0  0
    2.6262    2.0235   -0.8393 H   0  0  0  0  0
    4.0060    1.5333    0.1722 H   0  0  0  0  0
    2.4639    2.0030    0.9098 H   0  0  0  0  0
  1  2  1  0  0  0
  1  6  1  0  0  0
  2  5  1  0  0  0
  2  3  1  0  0  0
  2  7  1  0  0  0
  3  4  1  0  0  0
  3  8  1  0  0  0
  3  9  1  0  0  0
  4 10  1  0  0  0
  4 11  1  0  0  0
  5 12  1  0  0  0
  5 13  1  0  0  0
  5 14  1  0  0  0
M  END