51
 OpenBabel11300911173D

 34 34  0  0  0  0  0  0  0  0999 V2000
    2.0777    0.2766    2.3974 O   0  0  0  0  0
    2.0086   -0.3591    1.3460 C   0  0  0  0  0
    2.6592   -1.6944    1.2761 C   0  0  0  0  0
    2.6932   -2.4626    0.1778 C   0  0  0  0  0
    3.3322   -3.7748    0.1416 C   0  0  0  0  0
    4.6749   -3.9172    0.2708 C   0  0  0  0  0
    5.3511   -5.2724    0.2951 C   0  0  0  0  0
    4.4006   -6.4492    0.4666 C   0  0  0  0  0
    3.1721   -6.2675   -0.4095 C   0  0  0  0  0
    5.6641   -2.7796    0.3811 C   0  0  0  0  0
    2.3820   -4.9778   -0.0572 C   0  0  0  0  0
    1.3772   -4.7513   -1.2112 C   0  0  0  0  0
    1.5791   -5.2111    1.2427 C   0  0  0  0  0
    1.2850    0.1849    0.1422 C   0  0  0  0  0
    3.1255   -2.0138    2.2043 H   0  0  0  0  0
    2.2168   -2.1510   -0.7479 H   0  0  0  0  0
    5.9078   -5.3933   -0.6434 H   0  0  0  0  0
    6.0870   -5.3050    1.1081 H   0  0  0  0  0
    4.9168   -7.3782    0.1992 H   0  0  0  0  0
    4.1096   -6.5465    1.5187 H   0  0  0  0  0
    2.5258   -7.1496   -0.3172 H   0  0  0  0  0
    3.4955   -6.2332   -1.4594 H   0  0  0  0  0
    5.2244   -1.7933    0.2181 H   0  0  0  0  0
    6.4521   -2.8972   -0.3706 H   0  0  0  0  0
    6.1299   -2.7827    1.3715 H   0  0  0  0  0
    1.8938   -4.4866   -2.1410 H   0  0  0  0  0
    0.6624   -3.9526   -0.9842 H   0  0  0  0  0
    0.7900   -5.6571   -1.4033 H   0  0  0  0  0
    2.2346   -5.3315    2.1119 H   0  0  0  0  0
    0.9585   -6.1113    1.1665 H   0  0  0  0  0
    0.9057   -4.3732    1.4561 H   0  0  0  0  0
    0.8535    1.1592    0.3907 H   0  0  0  0  0
    0.4703   -0.4858   -0.1421 H   0  0  0  0  0
    1.9832    0.3211   -0.6874 H   0  0  0  0  0
  1  2  2  0  0  0
  2 14  1  0  0  0
  2  3  1  0  0  0
  3  4  2  0  0  0
  3 15  1  0  0  0
  4  5  1  0  0  0
  4 16  1  0  0  0
  5 11  1  0  0  0
  5  6  2  0  0  0
  6  7  1  0  0  0
  6 10  1  0  0  0
  7  8  1  0  0  0
  7 17  1  0  0  0
  7 18  1  0  0  0
  8  9  1  0  0  0
  8 19  1  0  0  0
  8 20  1  0  0  0
  9 11  1  0  0  0
  9 21  1  0  0  0
  9 22  1  0  0  0
 10 23  1  0  0  0
 10 24  1  0  0  0
 10 25  1  0  0  0
 11 13  1  0  0  0
 11 12  1  0  0  0
 12 26  1  0  0  0
 12 27  1  0  0  0
 12 28  1  0  0  0
 13 29  1  0  0  0
 13 30  1  0  0  0
 13 31  1  0  0  0
 14 32  1  0  0  0
 14 33  1  0  0  0
 14 34  1  0  0  0
M  END