52
 OpenBabel11300911513D

 28 28  0  0  0  0  0  0  0  0999 V2000
    0.9636   -0.2507    1.0520 O   0  0  0  0  0
    2.2620   -0.1827    0.6432 C   0  0  0  0  0
    2.7123   -0.8849   -0.4651 C   0  0  0  0  0
    4.0537   -0.7799   -0.8472 C   0  0  0  0  0
    4.9655    0.0254   -0.1331 C   0  0  0  0  0
    4.4725    0.7180    0.9866 C   0  0  0  0  0
    6.4335    0.1251   -0.5905 C   0  0  0  0  0
    6.5289    0.6328   -2.0623 C   0  0  0  0  0
    5.9445    2.0205   -2.3116 C   0  0  0  0  0
    7.3081    1.0320    0.3084 C   0  0  0  0  0
    7.0664   -1.2879   -0.5270 C   0  0  0  0  0
    3.1313    0.6151    1.3707 C   0  0  0  0  0
    0.4812   -0.8363    0.4463 H   0  0  0  0  0
    2.0445   -1.5145   -1.0437 H   0  0  0  0  0
    4.3801   -1.3399   -1.7208 H   0  0  0  0  0
    5.1132    1.3563    1.5882 H   0  0  0  0  0
    6.0333   -0.0713   -2.7425 H   0  0  0  0  0
    7.5828    0.6488   -2.3713 H   0  0  0  0  0
    4.8814    2.0647   -2.0579 H   0  0  0  0  0
    6.0414    2.2765   -3.3720 H   0  0  0  0  0
    6.4712    2.7900   -1.7408 H   0  0  0  0  0
    7.3624    0.6457    1.3334 H   0  0  0  0  0
    6.9272    2.0571    0.3618 H   0  0  0  0  0
    8.3359    1.0868   -0.0697 H   0  0  0  0  0
    6.9926   -1.7100    0.4824 H   0  0  0  0  0
    8.1283   -1.2574   -0.7983 H   0  0  0  0  0
    6.5811   -1.9909   -1.2129 H   0  0  0  0  0
    2.7699    1.1609    2.2377 H   0  0  0  0  0
  1  2  1  0  0  0
  1 13  1  0  0  0
  2  3  2  0  0  0
  2 12  1  0  0  0
  3  4  1  0  0  0
  3 14  1  0  0  0
  4  5  2  0  0  0
  4 15  1  0  0  0
  5  6  1  0  0  0
  5  7  1  0  0  0
  6 12  2  0  0  0
  6 16  1  0  0  0
  7 11  1  0  0  0
  7 10  1  0  0  0
  7  8  1  0  0  0
  8  9  1  0  0  0
  8 17  1  0  0  0
  8 18  1  0  0  0
  9 19  1  0  0  0
  9 20  1  0  0  0
  9 21  1  0  0  0
 10 22  1  0  0  0
 10 23  1  0  0  0
 10 24  1  0  0  0
 11 25  1  0  0  0
 11 26  1  0  0  0
 11 27  1  0  0  0
 12 28  1  0  0  0
M  END