53
 OpenBabel11300911513D

 15 15  0  0  0  0  0  0  0  0999 V2000
   -0.0106   -1.3694    0.1117 C   0  0  0  0  0
    1.2283   -0.6903    0.1039 C   0  0  0  0  0
    1.1786    0.7168   -0.0031 C   0  0  0  0  0
   -0.0395    1.4048   -0.0965 C   0  0  0  0  0
   -1.2421    0.7107   -0.0862 C   0  0  0  0  0
    2.6017    1.7049   -0.0278 Cl  0  0  0  0  0
    2.5564   -1.4038    0.2028 C   0  0  0  0  0
    2.7493   -2.2584    1.7533 Cl  0  0  0  0  0
    2.8506   -2.4779   -1.1867 Cl  0  0  0  0  0
   -1.2255   -0.6742    0.0180 C   0  0  0  0  0
   -0.1496   -3.0913    0.2359 Cl  0  0  0  0  0
   -0.0541    2.4902   -0.1781 H   0  0  0  0  0
   -2.1863    1.2448   -0.1587 H   0  0  0  0  0
    3.3976   -0.7133    0.1803 H   0  0  0  0  0
   -2.1697   -1.2165    0.0258 H   0  0  0  0  0
  1  2  2  0  0  0
  1 10  1  0  0  0
  1 11  1  0  0  0
  2  3  1  0  0  0
  2  7  1  0  0  0
  3  4  2  0  0  0
  3  6  1  0  0  0
  4  5  1  0  0  0
  4 12  1  0  0  0
  5 10  2  0  0  0
  5 13  1  0  0  0
  7  9  1  0  0  0
  7  8  1  0  0  0
  7 14  1  0  0  0
 10 15  1  0  0  0
M  END