58
 OpenBabel11300911523D

 42 42  0  0  0  0  0  0  0  0999 V2000
    2.9240   -0.5484   -0.1728 O   0  0  0  0  0
    2.4440    0.5299   -0.4740 C   0  0  0  0  0
    1.4927    0.7799   -1.4088 O   0  0  0  0  0
    1.2233   -0.3126   -2.3058 C   0  0  0  0  0
    2.2850   -0.3162   -3.4083 C   0  0  0  0  0
    2.0674   -1.4231   -4.4346 C   0  0  0  0  0
    3.1517   -1.4010   -5.5031 C   0  0  0  0  0
    3.0548    1.8229   -0.1366 C   0  0  0  0  0
    2.3748    2.8543    0.5102 C   0  0  0  0  0
    2.9935    4.1065    0.6479 C   0  0  0  0  0
    4.2893    4.3107    0.1677 C   0  0  0  0  0
    4.9783    3.2673   -0.4475 C   0  0  0  0  0
    1.0445    2.6983    1.1255 C   0  0  0  0  0
    0.1826    3.5580    1.0907 O   0  0  0  0  0
    1.0590    1.5896    1.9055 O   0  0  0  0  0
    0.0094    1.5124    2.8870 C   0  0  0  0  0
    0.4401    2.2697    4.1440 C   0  0  0  0  0
   -0.6203    2.2243    5.2406 C   0  0  0  0  0
   -0.1656    2.9754    6.4836 C   0  0  0  0  0
    4.3637    2.0255   -0.6022 C   0  0  0  0  0
    0.2321   -0.1386   -2.7375 H   0  0  0  0  0
    1.1850   -1.2670   -1.7683 H   0  0  0  0  0
    3.2810   -0.4219   -2.9606 H   0  0  0  0  0
    2.2884    0.6626   -3.9049 H   0  0  0  0  0
    1.0882   -1.3042   -4.9117 H   0  0  0  0  0
    2.0736   -2.3996   -3.9372 H   0  0  0  0  0
    3.1527   -0.4479   -6.0421 H   0  0  0  0  0
    2.9874   -2.2021   -6.2303 H   0  0  0  0  0
    4.1429   -1.5435   -5.0600 H   0  0  0  0  0
    2.4702    4.9233    1.1427 H   0  0  0  0  0
    4.7634    5.2831    0.2810 H   0  0  0  0  0
    5.9884    3.4239   -0.8193 H   0  0  0  0  0
   -0.1369    0.4519    3.1183 H   0  0  0  0  0
   -0.9380    1.8916    2.4862 H   0  0  0  0  0
    0.6648    3.3127    3.8885 H   0  0  0  0  0
    1.3829    1.8457    4.5123 H   0  0  0  0  0
   -0.8374    1.1840    5.5085 H   0  0  0  0  0
   -1.5530    2.6686    4.8746 H   0  0  0  0  0
    0.7466    2.5337    6.8978 H   0  0  0  0  0
   -0.9408    2.9384    7.2556 H   0  0  0  0  0
    0.0359    4.0272    6.2561 H   0  0  0  0  0
    4.8947    1.2196   -1.1066 H   0  0  0  0  0
  1  2  2  0  0  0
  2  8  1  0  0  0
  2  3  1  0  0  0
  3  4  1  0  0  0
  4  5  1  0  0  0
  4 21  1  0  0  0
  4 22  1  0  0  0
  5  6  1  0  0  0
  5 23  1  0  0  0
  5 24  1  0  0  0
  6  7  1  0  0  0
  6 25  1  0  0  0
  6 26  1  0  0  0
  7 27  1  0  0  0
  7 28  1  0  0  0
  7 29  1  0  0  0
  8  9  2  0  0  0
  8 20  1  0  0  0
  9 10  1  0  0  0
  9 13  1  0  0  0
 10 11  2  0  0  0
 10 30  1  0  0  0
 11 12  1  0  0  0
 11 31  1  0  0  0
 12 20  2  0  0  0
 12 32  1  0  0  0
 13 15  1  0  0  0
 13 14  2  0  0  0
 15 16  1  0  0  0
 16 17  1  0  0  0
 16 33  1  0  0  0
 16 34  1  0  0  0
 17 18  1  0  0  0
 17 35  1  0  0  0
 17 36  1  0  0  0
 18 19  1  0  0  0
 18 37  1  0  0  0
 18 38  1  0  0  0
 19 39  1  0  0  0
 19 40  1  0  0  0
 19 41  1  0  0  0
 20 42  1  0  0  0
M  END