59
 OpenBabel11300911523D

 27 28  0  0  0  0  0  0  0  0999 V2000
    2.6106   -0.6033   -1.1990 O   0  0  0  0  0
    3.3014    0.2680   -0.6782 C   0  0  0  0  0
    3.9914    0.1654    0.5167 N   0  0  0  0  0
    3.9844   -0.9227    1.4177 C   0  0  0  0  0
    3.1991   -2.0660    1.2593 C   0  0  0  0  0
    3.2537   -3.1011    2.1988 C   0  0  0  0  0
    4.0893   -2.9999    3.3079 C   0  0  0  0  0
    4.8714   -1.8618    3.4804 C   0  0  0  0  0
    4.8190   -0.8288    2.5403 C   0  0  0  0  0
    3.4666    1.5480   -1.4300 C   0  0  0  0  0
    3.2885    1.5564   -2.8234 C   0  0  0  0  0
    2.9392    0.4426   -3.5418 O   0  0  0  0  0
    3.4606    2.7279   -3.5584 C   0  0  0  0  0
    3.7921    3.9146   -2.9073 C   0  0  0  0  0
    3.9408    3.9305   -1.5210 C   0  0  0  0  0
    3.7740    2.7546   -0.7815 C   0  0  0  0  0
    4.6331    0.9098    0.7506 H   0  0  0  0  0
    2.5298   -2.1878    0.4141 H   0  0  0  0  0
    2.6394   -3.9870    2.0585 H   0  0  0  0  0
    4.1288   -3.8067    4.0351 H   0  0  0  0  0
    5.5235   -1.7775    4.3457 H   0  0  0  0  0
    5.4415    0.0472    2.7006 H   0  0  0  0  0
    2.6829   -0.2578   -2.8994 H   0  0  0  0  0
    3.3265    2.7138   -4.6371 H   0  0  0  0  0
    3.9196    4.8290   -3.4816 H   0  0  0  0  0
    4.1777    4.8638   -1.0148 H   0  0  0  0  0
    3.8585    2.8144    0.2995 H   0  0  0  0  0
  1  2  2  0  0  0
  2 10  1  0  0  0
  2  3  1  0  0  0
  3  4  1  0  0  0
  3 17  1  0  0  0
  4  5  2  0  0  0
  4  9  1  0  0  0
  5  6  1  0  0  0
  5 18  1  0  0  0
  6  7  2  0  0  0
  6 19  1  0  0  0
  7  8  1  0  0  0
  7 20  1  0  0  0
  8  9  2  0  0  0
  8 21  1  0  0  0
  9 22  1  0  0  0
 10 11  2  0  0  0
 10 16  1  0  0  0
 11 13  1  0  0  0
 11 12  1  0  0  0
 12 23  1  0  0  0
 13 14  2  0  0  0
 13 24  1  0  0  0
 14 15  1  0  0  0
 14 25  1  0  0  0
 15 16  2  0  0  0
 15 26  1  0  0  0
 16 27  1  0  0  0
M  END