60
 OpenBabel11300911523D

 10  9  0  0  0  0  0  0  0  0999 V2000
    1.1087    0.0564    0.1293 C   0  0  0  0  0
    0.3281   -1.0064   -0.1423 C   0  0  0  0  0
   -1.1266   -0.9775   -0.1254 C   0  0  0  0  0
   -1.8727   -1.1153    0.9871 C   0  0  0  0  0
   -3.6080   -1.0619    0.9710 Cl  0  0  0  0  0
   -1.1578   -1.3691    2.5510 Cl  0  0  0  0  0
   -1.8463   -0.7288   -1.6953 Cl  0  0  0  0  0
    0.9998   -2.5684   -0.5375 Cl  0  0  0  0  0
    0.4412    1.6141    0.5174 Cl  0  0  0  0  0
    2.8427   -0.0175    0.1125 Cl  0  0  0  0  0
  1 10  1  0  0  0
  1  9  1  0  0  0
  1  2  2  0  0  0
  2  8  1  0  0  0
  2  3  1  0  0  0
  3  7  1  0  0  0
  3  4  2  0  0  0
  4  6  1  0  0  0
  4  5  1  0  0  0
M  END