61
 OpenBabel11300911523D

 13 13  0  0  0  0  0  0  0  0999 V2000
    0.9570    0.0033   -0.0035 O   0  0  0  0  0
    2.3318    0.0130   -0.0007 C   0  0  0  0  0
    3.0460   -1.1913    0.0008 C   0  0  0  0  0
    4.4481   -1.1759    0.0036 C   0  0  0  0  0
    5.1311    0.0566    0.0048 C   0  0  0  0  0
    4.4090    1.2676    0.0032 C   0  0  0  0  0
    5.2497    2.7921    0.0047 Cl  0  0  0  0  0
    6.8739    0.0824    0.0083 Cl  0  0  0  0  0
    5.3288   -2.6764    0.0056 Cl  0  0  0  0  0
    2.1401   -2.6726   -0.0008 Cl  0  0  0  0  0
    3.0039    1.2422    0.0004 C   0  0  0  0  0
    2.0722    2.7077   -0.0016 Cl  0  0  0  0  0
    0.6467   -0.9227   -0.0040 H   0  0  0  0  0
  1  2  1  0  0  0
  1 13  1  0  0  0
  2  3  2  0  0  0
  2 11  1  0  0  0
  3  4  1  0  0  0
  3 10  1  0  0  0
  4  5  2  0  0  0
  4  9  1  0  0  0
  5  6  1  0  0  0
  5  8  1  0  0  0
  6 11  2  0  0  0
  6  7  1  0  0  0
 11 12  1  0  0  0
M  END