63
 OpenBabel11300911173D

 18 18  0  0  0  0  0  0  0  0999 V2000
    1.0178   -0.0609    0.0816 O   0  0  0  0  0
    2.3728   -0.0721   -0.0552 C   0  0  0  0  0
    3.1060    1.1084   -0.1085 C   0  0  0  0  0
    4.4916    1.0440   -0.2467 C   0  0  0  0  0
    5.1220   -0.2089   -0.3298 C   0  0  0  0  0
    6.5745   -0.2190   -0.4437 N   0  0  0  0  0
    7.1973   -0.9087    0.3707 O   0  0  0  0  0
    7.0742    0.4936   -1.3229 O   0  0  0  0  0
    2.9973   -1.3156   -0.1431 C   0  0  0  0  0
    4.3920   -1.4081   -0.2931 C   0  0  0  0  0
    5.0450   -2.7589   -0.4107 C   0  0  0  0  0
    5.6133   -3.1746    0.7500 F   0  0  0  0  0
    4.1634   -3.7400   -0.7580 F   0  0  0  0  0
    6.0135   -2.7970   -1.3643 F   0  0  0  0  0
    0.7052    0.8585    0.1256 H   0  0  0  0  0
    2.6197    2.0778   -0.0420 H   0  0  0  0  0
    5.0725    1.9643   -0.2833 H   0  0  0  0  0
    2.3845   -2.2163   -0.1025 H   0  0  0  0  0
  1  2  1  0  0  0
  1 15  1  0  0  0
  2  3  2  0  0  0
  2  9  1  0  0  0
  3  4  1  0  0  0
  3 16  1  0  0  0
  4  5  2  0  0  0
  4 17  1  0  0  0
  5 10  1  0  0  0
  5  6  1  0  0  0
  6  8  2  0  0  0
  6  7  2  0  0  0
  9 10  2  0  0  0
  9 18  1  0  0  0
 10 11  1  0  0  0
 11 14  1  0  0  0
 11 13  1  0  0  0
 11 12  1  0  0  0
M  END