64
 OpenBabel11300911173D

 18 18  0  0  0  0  0  0  0  0999 V2000
    2.6912   -1.0140    0.5237 O   0  0  0  0  0
    2.1664   -0.0016    0.0793 C   0  0  0  0  0
    0.8988   -0.0337   -0.4426 N   0  0  0  0  0
    2.8915    1.2917   -0.0144 C   0  0  0  0  0
    2.2613    2.5376    0.1807 C   0  0  0  0  0
    0.9703    2.6668    0.7161 N   0  0  0  0  0
    3.0447    3.6957    0.0643 C   0  0  0  0  0
    4.3958    3.6261   -0.2889 C   0  0  0  0  0
    5.0014    2.3901   -0.4939 C   0  0  0  0  0
    4.2537    1.2236   -0.3484 C   0  0  0  0  0
    0.4892   -0.9559   -0.5271 H   0  0  0  0  0
    0.6133    0.6683   -1.1128 H   0  0  0  0  0
    0.4911    3.5349    0.5042 H   0  0  0  0  0
    0.3850    1.8377    0.6479 H   0  0  0  0  0
    2.6099    4.6705    0.2733 H   0  0  0  0  0
    4.9802    4.5388   -0.3760 H   0  0  0  0  0
    6.0562    2.3328   -0.7508 H   0  0  0  0  0
    4.7306    0.2562   -0.4940 H   0  0  0  0  0
  1  2  2  0  0  0
  2  4  1  0  0  0
  2  3  1  0  0  0
  3 11  1  0  0  0
  3 12  1  0  0  0
  4  5  2  0  0  0
  4 10  1  0  0  0
  5  7  1  0  0  0
  5  6  1  0  0  0
  6 13  1  0  0  0
  6 14  1  0  0  0
  7  8  2  0  0  0
  7 15  1  0  0  0
  8  9  1  0  0  0
  8 16  1  0  0  0
  9 10  2  0  0  0
  9 17  1  0  0  0
 10 18  1  0  0  0
M  END