65
 OpenBabel11300911523D

 14 14  0  0  0  0  0  0  0  0999 V2000
    1.8727   -0.4210    1.2200 O   0  0  0  0  0
    2.2083   -0.0554    0.0865 N   0  0  0  0  0
    2.0601   -0.7023   -0.9587 O   0  0  0  0  0
    2.8943    1.2092   -0.0225 C   0  0  0  0  0
    2.2105    2.4052    0.1896 C   0  0  0  0  0
    2.9186    3.6056    0.0851 C   0  0  0  0  0
    4.2826    3.5974   -0.2287 C   0  0  0  0  0
    4.9506    2.3902   -0.4454 C   0  0  0  0  0
    0.5245    2.4886    0.5433 Cl  0  0  0  0  0
    4.2580    1.1847   -0.3447 C   0  0  0  0  0
    2.4147    4.5572    0.2427 H   0  0  0  0  0
    4.8247    4.5381   -0.3082 H   0  0  0  0  0
    6.0104    2.3921   -0.6929 H   0  0  0  0  0
    4.7763    0.2433   -0.5141 H   0  0  0  0  0
  1  2  2  0  0  0
  2  4  1  0  0  0
  2  3  2  0  0  0
  4  5  2  0  0  0
  4 10  1  0  0  0
  5  6  1  0  0  0
  5  9  1  0  0  0
  6  7  2  0  0  0
  6 11  1  0  0  0
  7  8  1  0  0  0
  7 12  1  0  0  0
  8 10  2  0  0  0
  8 13  1  0  0  0
 10 14  1  0  0  0
M  END