66
 OpenBabel11300911523D

 15 15  0  0  0  0  0  0  0  0999 V2000
    0.9518   -0.0145    0.0832 N   0  0  0  0  0
    0.3215   -0.5792   -0.8234 O   0  0  0  0  0
    0.4564    0.4706    1.1096 O   0  0  0  0  0
    2.3950   -0.0062   -0.0326 C   0  0  0  0  0
    3.0903    1.2015   -0.0978 C   0  0  0  0  0
    2.4289    2.3940   -0.0970 O   0  0  0  0  0
    4.4817    1.1783   -0.1919 C   0  0  0  0  0
    5.1584   -0.0464   -0.2248 C   0  0  0  0  0
    4.4515   -1.2507   -0.1686 C   0  0  0  0  0
    3.0607   -1.2373   -0.0734 C   0  0  0  0  0
    3.0682    3.1264   -0.0818 H   0  0  0  0  0
    5.0575    2.0981   -0.2480 H   0  0  0  0  0
    6.2441   -0.0622   -0.3000 H   0  0  0  0  0
    4.9867   -2.1974   -0.1995 H   0  0  0  0  0
    2.5081   -2.1730   -0.0298 H   0  0  0  0  0
  1  4  1  0  0  0
  1  3  2  0  0  0
  1  2  2  0  0  0
  4  5  2  0  0  0
  4 10  1  0  0  0
  5  7  1  0  0  0
  5  6  1  0  0  0
  6 11  1  0  0  0
  7  8  2  0  0  0
  7 12  1  0  0  0
  8  9  1  0  0  0
  8 13  1  0  0  0
  9 10  2  0  0  0
  9 14  1  0  0  0
 10 15  1  0  0  0
M  END