67
 OpenBabel11300911523D

 29 29  0  0  0  0  0  0  0  0999 V2000
    0.7158    0.0502    0.4766 N   0  0  0  0  0
    0.6049    1.2808    0.5584 O   0  0  0  0  0
   -0.2229   -0.7510    0.5773 O   0  0  0  0  0
    2.0589   -0.5022    0.2467 C   0  0  0  0  0
    2.2310   -1.8854    0.1424 C   0  0  0  0  0
    3.5210   -2.3979   -0.0673 C   0  0  0  0  0
    3.6815   -3.8530   -0.1732 N   0  0  0  0  0
    4.8327   -4.2946   -0.3106 O   0  0  0  0  0
    2.6626   -4.5555   -0.1197 O   0  0  0  0  0
    4.6314   -1.5344   -0.1656 C   0  0  0  0  0
    5.9140   -1.9730   -0.3704 O   0  0  0  0  0
    4.4582   -0.1392   -0.0528 C   0  0  0  0  0
    5.6457    0.8223   -0.1180 C   0  0  0  0  0
    5.5777    1.7792   -1.3265 C   0  0  0  0  0
    5.7943    1.0686   -2.6566 C   0  0  0  0  0
    5.7611    1.6210    1.1884 C   0  0  0  0  0
    3.1566    0.3644    0.1458 C   0  0  0  0  0
    1.3742   -2.5532    0.2255 H   0  0  0  0  0
    5.9473   -2.9523   -0.4141 H   0  0  0  0  0
    6.5801    0.2550   -0.2041 H   0  0  0  0  0
    6.3573    2.5449   -1.2248 H   0  0  0  0  0
    4.6203    2.3125   -1.3556 H   0  0  0  0  0
    6.7708    0.5739   -2.6791 H   0  0  0  0  0
    5.7665    1.7929   -3.4771 H   0  0  0  0  0
    5.0215    0.3180   -2.8449 H   0  0  0  0  0
    4.9227    2.3122    1.3248 H   0  0  0  0  0
    6.6816    2.2148    1.1944 H   0  0  0  0  0
    5.7904    0.9518    2.0555 H   0  0  0  0  0
    3.0077    1.4408    0.2309 H   0  0  0  0  0
  1  4  1  0  0  0
  1  3  2  0  0  0
  1  2  2  0  0  0
  4  5  2  0  0  0
  4 17  1  0  0  0
  5  6  1  0  0  0
  5 18  1  0  0  0
  6 10  2  0  0  0
  6  7  1  0  0  0
  7  9  2  0  0  0
  7  8  2  0  0  0
 10 12  1  0  0  0
 10 11  1  0  0  0
 11 19  1  0  0  0
 12 17  2  0  0  0
 12 13  1  0  0  0
 13 16  1  0  0  0
 13 14  1  0  0  0
 13 20  1  0  0  0
 14 15  1  0  0  0
 14 21  1  0  0  0
 14 22  1  0  0  0
 15 23  1  0  0  0
 15 24  1  0  0  0
 15 25  1  0  0  0
 16 26  1  0  0  0
 16 27  1  0  0  0
 16 28  1  0  0  0
 17 29  1  0  0  0
M  END