68
 OpenBabel11300911523D

 15 15  0  0  0  0  0  0  0  0999 V2000
    2.7347   -1.1153    0.0172 O   0  0  0  0  0
    2.1835   -0.0230    0.1106 C   0  0  0  0  0
    2.9347    1.2428   -0.0068 C   0  0  0  0  0
    2.2788    2.4718    0.1040 C   0  0  0  0  0
    0.9302    2.5108    0.3230 O   0  0  0  0  0
    2.9980    3.6626   -0.0084 C   0  0  0  0  0
    4.3764    3.6221   -0.2323 C   0  0  0  0  0
    5.0348    2.3970   -0.3435 C   0  0  0  0  0
    4.3157    1.2064   -0.2311 C   0  0  0  0  0
    1.0978    0.0510    0.2870 H   0  0  0  0  0
    0.6420    3.4385    0.3731 H   0  0  0  0  0
    2.5075    4.6280    0.0746 H   0  0  0  0  0
    4.9402    4.5481   -0.3205 H   0  0  0  0  0
    6.1079    2.3675   -0.5177 H   0  0  0  0  0
    4.8319    0.2522   -0.3182 H   0  0  0  0  0
  1  2  2  0  0  0
  2  3  1  0  0  0
  2 10  1  0  0  0
  3  4  2  0  0  0
  3  9  1  0  0  0
  4  6  1  0  0  0
  4  5  1  0  0  0
  5 11  1  0  0  0
  6  7  2  0  0  0
  6 12  1  0  0  0
  7  8  1  0  0  0
  7 13  1  0  0  0
  8  9  2  0  0  0
  8 14  1  0  0  0
  9 15  1  0  0  0
M  END