69
 OpenBabel11300911173D

 19 20  0  0  0  0  0  0  0  0999 V2000
    0.9358   -0.0025   -0.2707 O   0  0  0  0  0
    2.2946    0.0140   -0.0832 C   0  0  0  0  0
    2.9905   -1.2090    0.0114 C   0  0  0  0  0
    4.3910   -1.1761    0.2078 C   0  0  0  0  0
    5.1050   -2.3822    0.3069 C   0  0  0  0  0
    4.4505   -3.6117    0.2132 C   0  0  0  0  0
    3.0744   -3.6520    0.0189 C   0  0  0  0  0
    5.0475    0.0625    0.3012 C   0  0  0  0  0
    4.3366    1.2598    0.2028 C   0  0  0  0  0
    2.3512   -2.4622   -0.0809 C   0  0  0  0  0
    2.9581    1.2381    0.0107 C   0  0  0  0  0
    0.6142    0.9126   -0.3011 H   0  0  0  0  0
    6.1817   -2.3729    0.4587 H   0  0  0  0  0
    5.0165   -4.5360    0.2919 H   0  0  0  0  0
    2.5599   -4.6062   -0.0552 H   0  0  0  0  0
    6.1242    0.1023    0.4519 H   0  0  0  0  0
    4.8617    2.2084    0.2768 H   0  0  0  0  0
    1.2746   -2.5104   -0.2327 H   0  0  0  0  0
    2.4199    2.1775   -0.0637 H   0  0  0  0  0
  1  2  1  0  0  0
  1 12  1  0  0  0
  2 11  1  0  0  0
  2  3  2  0  0  0
  3  4  1  0  0  0
  3 10  1  0  0  0
  4  5  1  0  0  0
  4  8  2  0  0  0
  5  6  2  0  0  0
  5 13  1  0  0  0
  6  7  1  0  0  0
  6 14  1  0  0  0
  7 10  2  0  0  0
  7 15  1  0  0  0
  8  9  1  0  0  0
  8 16  1  0  0  0
  9 11  2  0  0  0
  9 17  1  0  0  0
 10 18  1  0  0  0
 11 19  1  0  0  0
M  END