70
 OpenBabel11300911173D

 23 24  0  0  0  0  0  0  0  0999 V2000
    0.9462   -0.1311    0.1023 O   0  0  0  0  0
    2.3141   -0.0726    0.0273 C   0  0  0  0  0
    2.9480    1.1749   -0.1196 C   0  0  0  0  0
    2.2057    2.4482   -0.1855 C   0  0  0  0  0
    1.3427    2.8418    0.8501 C   0  0  0  0  0
    0.6556    4.0577    0.7953 C   0  0  0  0  0
    0.8218    4.9038   -0.2983 C   0  0  0  0  0
    1.6722    4.5336   -1.3369 C   0  0  0  0  0
    2.3581    3.3171   -1.2797 C   0  0  0  0  0
    4.3532    1.1812   -0.2048 C   0  0  0  0  0
    5.0915   -0.0045   -0.1455 C   0  0  0  0  0
    4.4384   -1.2247   -0.0003 C   0  0  0  0  0
    3.0483   -1.2619    0.0871 C   0  0  0  0  0
    0.6704   -1.0607    0.1269 H   0  0  0  0  0
    1.1997    2.1922    1.7114 H   0  0  0  0  0
   -0.0100    4.3395    1.6069 H   0  0  0  0  0
    0.2860    5.8479   -0.3424 H   0  0  0  0  0
    1.8005    5.1882   -2.1948 H   0  0  0  0  0
    3.0094    3.0414   -2.1064 H   0  0  0  0  0
    4.8853    2.1253   -0.3065 H   0  0  0  0  0
    6.1763    0.0300   -0.2105 H   0  0  0  0  0
    5.0120   -2.1455    0.0466 H   0  0  0  0  0
    2.5531   -2.2210    0.2008 H   0  0  0  0  0
  1  2  1  0  0  0
  1 14  1  0  0  0
  2  3  2  0  0  0
  2 13  1  0  0  0
  3 10  1  0  0  0
  3  4  1  0  0  0
  4  5  2  0  0  0
  4  9  1  0  0  0
  5  6  1  0  0  0
  5 15  1  0  0  0
  6  7  2  0  0  0
  6 16  1  0  0  0
  7  8  1  0  0  0
  7 17  1  0  0  0
  8  9  2  0  0  0
  8 18  1  0  0  0
  9 19  1  0  0  0
 10 11  2  0  0  0
 10 20  1  0  0  0
 11 12  1  0  0  0
 11 21  1  0  0  0
 12 13  2  0  0  0
 12 22  1  0  0  0
 13 23  1  0  0  0
M  END