71
 OpenBabel11300911173D

 15 15  0  0  0  0  0  0  0  0999 V2000
    0.9342   -0.2512   -0.0480 O   0  0  0  0  0
    2.2989   -0.1458   -0.0144 C   0  0  0  0  0
    2.9235    1.1051    0.0364 C   0  0  0  0  0
    1.8963    2.6993    0.0604 Br  0  0  0  0  0
    4.3148    1.2026    0.0704 C   0  0  0  0  0
    5.0824    0.0385    0.0532 C   0  0  0  0  0
    6.9693    0.1646    0.0991 Br  0  0  0  0  0
    4.4755   -1.2148    0.0028 C   0  0  0  0  0
    3.0787   -1.3051   -0.0311 C   0  0  0  0  0
    2.4428   -2.6365   -0.0845 C   0  0  0  0  0
    3.1089   -3.6657   -0.0999 O   0  0  0  0  0
    0.5602    0.6506   -0.0298 H   0  0  0  0  0
    4.7987    2.1752    0.1098 H   0  0  0  0  0
    5.0789   -2.1207   -0.0104 H   0  0  0  0  0
    1.3403   -2.6721   -0.1102 H   0  0  0  0  0
  1  2  1  0  0  0
  1 12  1  0  0  0
  2  9  1  0  0  0
  2  3  2  0  0  0
  3  5  1  0  0  0
  3  4  1  0  0  0
  5  6  2  0  0  0
  5 13  1  0  0  0
  6  8  1  0  0  0
  6  7  1  0  0  0
  8  9  2  0  0  0
  8 14  1  0  0  0
  9 10  1  0  0  0
 10 11  2  0  0  0
 10 15  1  0  0  0
M  END