73
 OpenBabel11300911173D

 26 26  0  0  0  0  0  0  0  0999 V2000
    0.2812    0.8575   -0.6609 N   0  0  0  0  0
   -0.3126    2.0484   -1.0695 C   0  0  0  0  0
    0.3885    3.2674   -1.1018 C   0  0  0  0  0
   -0.2070    4.4710   -1.5062 C   0  0  0  0  0
   -1.5357    4.4931   -1.9019 C   0  0  0  0  0
   -2.2633    3.3113   -1.8910 C   0  0  0  0  0
   -1.6571    2.1155   -1.4798 C   0  0  0  0  0
   -0.5043   -0.3592   -0.4186 C   0  0  0  0  0
   -0.6260   -1.1959   -1.6841 C   0  0  0  0  0
    1.7258    0.7495   -0.4198 C   0  0  0  0  0
    2.0717    1.1044    1.0197 C   0  0  0  0  0
    1.4280    3.3217   -0.7948 H   0  0  0  0  0
    0.3767    5.3877   -1.5053 H   0  0  0  0  0
   -2.0015    5.4226   -2.2169 H   0  0  0  0  0
   -3.3033    3.3089   -2.2032 H   0  0  0  0  0
   -2.2775    1.2256   -1.5069 H   0  0  0  0  0
   -1.4929   -0.1294   -0.0047 H   0  0  0  0  0
   -0.0132   -0.9675    0.3514 H   0  0  0  0  0
   -1.1146   -0.6440   -2.4924 H   0  0  0  0  0
   -1.2144   -2.0970   -1.4846 H   0  0  0  0  0
    0.3594   -1.5082   -2.0450 H   0  0  0  0  0
    2.3025    1.3600   -1.1230 H   0  0  0  0  0
    2.0524   -0.2809   -0.6090 H   0  0  0  0  0
    1.8063    2.1387    1.2586 H   0  0  0  0  0
    3.1461    0.9832    1.1898 H   0  0  0  0  0
    1.5417    0.4560    1.7249 H   0  0  0  0  0
  1 10  1  0  0  0
  1  8  1  0  0  0
  1  2  1  0  0  0
  2  3  2  0  0  0
  2  7  1  0  0  0
  3  4  1  0  0  0
  3 12  1  0  0  0
  4  5  2  0  0  0
  4 13  1  0  0  0
  5  6  1  0  0  0
  5 14  1  0  0  0
  6  7  2  0  0  0
  6 15  1  0  0  0
  7 16  1  0  0  0
  8  9  1  0  0  0
  8 17  1  0  0  0
  8 18  1  0  0  0
  9 19  1  0  0  0
  9 20  1  0  0  0
  9 21  1  0  0  0
 10 11  1  0  0  0
 10 22  1  0  0  0
 10 23  1  0  0  0
 11 24  1  0  0  0
 11 25  1  0  0  0
 11 26  1  0  0  0
M  END