75
 OpenBabel11300911523D

 22 22  0  0  0  0  0  0  0  0999 V2000
    4.1304   -1.0590   -0.3823 O   0  0  0  0  0
    5.1727   -0.6808    0.1513 C   0  0  0  0  0
    6.3813   -1.5525    0.1081 C   0  0  0  0  0
    6.4690   -2.5121   -0.9089 C   0  0  0  0  0
    7.5841   -3.3482   -0.9943 C   0  0  0  0  0
    8.6092   -3.2374   -0.0565 C   0  0  0  0  0
    8.5213   -2.2936    0.9660 C   0  0  0  0  0
    7.4107   -1.4494    1.0506 C   0  0  0  0  0
    5.2424    0.6482    0.8501 C   0  0  0  0  0
    4.8522    0.5734    2.2997 C   0  0  0  0  0
    5.6667    0.8338    3.1872 O   0  0  0  0  0
    3.4392    0.1703    2.6271 C   0  0  0  0  0
    5.6714   -2.6096   -1.6435 H   0  0  0  0  0
    7.6500   -4.0861   -1.7899 H   0  0  0  0  0
    9.4757   -3.8916   -0.1195 H   0  0  0  0  0
    9.3175   -2.2175    1.7031 H   0  0  0  0  0
    7.3716   -0.7366    1.8704 H   0  0  0  0  0
    4.5732    1.3505    0.3403 H   0  0  0  0  0
    6.2456    1.0770    0.7559 H   0  0  0  0  0
    3.2680   -0.8662    2.3276 H   0  0  0  0  0
    2.7383    0.8345    2.1151 H   0  0  0  0  0
    3.2757    0.2551    3.7056 H   0  0  0  0  0
  1  2  2  0  0  0
  2  9  1  0  0  0
  2  3  1  0  0  0
  3  4  2  0  0  0
  3  8  1  0  0  0
  4  5  1  0  0  0
  4 13  1  0  0  0
  5  6  2  0  0  0
  5 14  1  0  0  0
  6  7  1  0  0  0
  6 15  1  0  0  0
  7  8  2  0  0  0
  7 16  1  0  0  0
  8 17  1  0  0  0
  9 10  1  0  0  0
  9 18  1  0  0  0
  9 19  1  0  0  0
 10 12  1  0  0  0
 10 11  2  0  0  0
 12 20  1  0  0  0
 12 21  1  0  0  0
 12 22  1  0  0  0
M  END