76
 OpenBabel11300911523D

 23 23  0  0  0  0  0  0  0  0999 V2000
    3.5260   -0.4976    0.0748 O   0  0  0  0  0
    2.8122    0.4904    0.1445 C   0  0  0  0  0
    1.4693    0.4917    0.3372 O   0  0  0  0  0
    0.8579   -0.8000    0.4725 C   0  0  0  0  0
    0.5409   -1.3768   -0.8945 C   0  0  0  0  0
    3.3201    1.8818    0.0023 C   0  0  0  0  0
    2.5004    3.0043    0.1665 C   0  0  0  0  0
    3.0329    4.2906    0.0205 C   0  0  0  0  0
    4.3719    4.4761   -0.3325 C   0  0  0  0  0
    4.9224    5.7621   -0.3533 N   0  0  0  0  0
    5.1994    3.3553   -0.4318 C   0  0  0  0  0
    4.6770    2.0659   -0.2875 C   0  0  0  0  0
   -0.0705   -0.6557    1.0348 H   0  0  0  0  0
    1.4881   -1.4781    1.0597 H   0  0  0  0  0
   -0.0778   -0.6818   -1.4713 H   0  0  0  0  0
    0.0103   -2.3283   -0.8003 H   0  0  0  0  0
    1.4553   -1.5436   -1.4725 H   0  0  0  0  0
    1.4495    2.8983    0.4233 H   0  0  0  0  0
    2.3875    5.1498    0.1857 H   0  0  0  0  0
    5.7746    5.8347   -0.9009 H   0  0  0  0  0
    4.2555    6.4913   -0.5871 H   0  0  0  0  0
    6.2624    3.4744   -0.6245 H   0  0  0  0  0
    5.3382    1.2075   -0.3902 H   0  0  0  0  0
  1  2  2  0  0  0
  2  6  1  0  0  0
  2  3  1  0  0  0
  3  4  1  0  0  0
  4  5  1  0  0  0
  4 13  1  0  0  0
  4 14  1  0  0  0
  5 15  1  0  0  0
  5 16  1  0  0  0
  5 17  1  0  0  0
  6  7  2  0  0  0
  6 12  1  0  0  0
  7  8  1  0  0  0
  7 18  1  0  0  0
  8  9  2  0  0  0
  8 19  1  0  0  0
  9 11  1  0  0  0
  9 10  1  0  0  0
 10 20  1  0  0  0
 10 21  1  0  0  0
 11 12  2  0  0  0
 11 22  1  0  0  0
 12 23  1  0  0  0
M  END