77
 OpenBabel11300911173D

 40 42  0  0  0  0  0  0  0  0999 V2000
    3.1145   -1.4095   -0.0433 O   0  0  0  0  0
    2.5235   -0.4550    0.4520 C   0  0  0  0  0
    1.3985   -0.5675    1.2680 N   0  0  0  0  0
    0.8728   -1.9163    1.4637 C   0  0  0  0  0
   -0.5958   -1.9013    1.8778 C   0  0  0  0  0
   -0.8199   -1.0034    3.0897 C   0  0  0  0  0
   -0.2898    0.3991    2.8130 C   0  0  0  0  0
    1.1710    0.3640    2.3778 C   0  0  0  0  0
    2.9371    0.9337    0.1353 C   0  0  0  0  0
    4.2272    1.2455   -0.0501 C   0  0  0  0  0
    4.6343    2.5828   -0.4203 C   0  0  0  0  0
    5.9134    2.9644   -0.5491 C   0  0  0  0  0
    6.3158    4.3144   -0.9812 C   0  0  0  0  0
    7.5190    4.4618   -1.7082 C   0  0  0  0  0
    7.9392    5.7157   -2.1692 C   0  0  0  0  0
    7.1433    6.8023   -1.8844 C   0  0  0  0  0
    7.3798    8.0861   -2.2639 O   0  0  0  0  0
    6.2231    8.7493   -1.7121 C   0  0  0  0  0
    5.3471    7.8642   -0.9836 O   0  0  0  0  0
    5.9850    6.6755   -1.1572 C   0  0  0  0  0
    5.5526    5.4548   -0.6821 C   0  0  0  0  0
    1.4867   -2.4070    2.2286 H   0  0  0  0  0
    0.9798   -2.4922    0.5371 H   0  0  0  0  0
   -0.9319   -2.9201    2.0988 H   0  0  0  0  0
   -1.2053   -1.5337    1.0424 H   0  0  0  0  0
   -0.3093   -1.4268    3.9632 H   0  0  0  0  0
   -1.8879   -0.9574    3.3292 H   0  0  0  0  0
   -0.3952    1.0214    3.7087 H   0  0  0  0  0
   -0.8928    0.8638    2.0231 H   0  0  0  0  0
    1.4936    1.3768    2.1237 H   0  0  0  0  0
    1.8071    0.0318    3.2081 H   0  0  0  0  0
    2.1430    1.6599    0.0139 H   0  0  0  0  0
    4.9951    0.4821    0.0632 H   0  0  0  0  0
    3.8319    3.2880   -0.6291 H   0  0  0  0  0
    6.7215    2.2574   -0.3720 H   0  0  0  0  0
    8.1293    3.5900   -1.9371 H   0  0  0  0  0
    8.8543    5.8268   -2.7395 H   0  0  0  0  0
    6.5621    9.5414   -1.0350 H   0  0  0  0  0
    5.6560    9.2060   -2.5318 H   0  0  0  0  0
    4.6400    5.4019   -0.0997 H   0  0  0  0  0
  1  2  2  0  0  0
  2  9  1  0  0  0
  2  3  1  0  0  0
  3  4  1  0  0  0
  3  8  1  0  0  0
  4  5  1  0  0  0
  4 22  1  0  0  0
  4 23  1  0  0  0
  5  6  1  0  0  0
  5 24  1  0  0  0
  5 25  1  0  0  0
  6  7  1  0  0  0
  6 26  1  0  0  0
  6 27  1  0  0  0
  7  8  1  0  0  0
  7 28  1  0  0  0
  7 29  1  0  0  0
  8 30  1  0  0  0
  8 31  1  0  0  0
  9 10  2  0  0  0
  9 32  1  0  0  0
 10 11  1  0  0  0
 10 33  1  0  0  0
 11 12  2  0  0  0
 11 34  1  0  0  0
 12 13  1  0  0  0
 12 35  1  0  0  0
 13 14  2  0  0  0
 13 21  1  0  0  0
 14 15  1  0  0  0
 14 36  1  0  0  0
 15 16  2  0  0  0
 15 37  1  0  0  0
 16 20  1  0  0  0
 16 17  1  0  0  0
 17 18  1  0  0  0
 18 19  1  0  0  0
 18 38  1  0  0  0
 18 39  1  0  0  0
 19 20  1  0  0  0
 20 21  2  0  0  0
 21 40  1  0  0  0
M  END