78
 OpenBabel11300911523D

 16 16  0  0  0  0  0  0  0  0999 V2000
    2.7423   -1.1068    0.0516 O   0  0  0  0  0
    2.1911   -0.0141    0.1319 C   0  0  0  0  0
    2.9414    1.2506   -0.0075 C   0  0  0  0  0
    2.2848    2.4827    0.0889 C   0  0  0  0  0
    0.9363    2.5187    0.3142 O   0  0  0  0  0
    2.9998    3.6753   -0.0438 C   0  0  0  0  0
    4.3732    3.6196   -0.2730 C   0  0  0  0  0
    5.1188    4.7534   -0.4102 O   0  0  0  0  0
    5.0374    2.4008   -0.3709 C   0  0  0  0  0
    4.3211    1.2110   -0.2380 C   0  0  0  0  0
    1.1065    0.0617    0.3126 H   0  0  0  0  0
    0.6371    3.4432    0.3542 H   0  0  0  0  0
    2.4965    4.6329    0.0300 H   0  0  0  0  0
    4.5441    5.5312   -0.3225 H   0  0  0  0  0
    6.1091    2.3760   -0.5499 H   0  0  0  0  0
    4.8392    0.2571   -0.3143 H   0  0  0  0  0
  1  2  2  0  0  0
  2  3  1  0  0  0
  2 11  1  0  0  0
  3  4  2  0  0  0
  3 10  1  0  0  0
  4  6  1  0  0  0
  4  5  1  0  0  0
  5 12  1  0  0  0
  6  7  2  0  0  0
  6 13  1  0  0  0
  7  9  1  0  0  0
  7  8  1  0  0  0
  8 14  1  0  0  0
  9 10  2  0  0  0
  9 15  1  0  0  0
 10 16  1  0  0  0
M  END