80
 OpenBabel11300911173D

 16 16  0  0  0  0  0  0  0  0999 V2000
    0.9795   -0.1273    0.0681 O   0  0  0  0  0
    2.3404   -0.0487   -0.0271 C   0  0  0  0  0
    3.0274    1.1685   -0.1187 C   0  0  0  0  0
    4.4274    1.1338   -0.2198 C   0  0  0  0  0
    5.1157   -0.0820   -0.2239 C   0  0  0  0  0
    4.4140   -1.2809   -0.1277 C   0  0  0  0  0
    2.3218    2.4929   -0.1193 C   0  0  0  0  0
    3.0246   -1.2631   -0.0294 C   0  0  0  0  0
    0.6050    0.7659    0.0390 H   0  0  0  0  0
    4.9967    2.0578   -0.2964 H   0  0  0  0  0
    6.1998   -0.0921   -0.3022 H   0  0  0  0  0
    4.9461   -2.2280   -0.1300 H   0  0  0  0  0
    3.0295    3.3280   -0.1519 H   0  0  0  0  0
    1.7241    2.6053    0.7909 H   0  0  0  0  0
    1.6711    2.5736   -0.9957 H   0  0  0  0  0
    2.4714   -2.1951    0.0445 H   0  0  0  0  0
  1  2  1  0  0  0
  1  9  1  0  0  0
  2  3  2  0  0  0
  2  8  1  0  0  0
  3  4  1  0  0  0
  3  7  1  0  0  0
  4  5  2  0  0  0
  4 10  1  0  0  0
  5  6  1  0  0  0
  5 11  1  0  0  0
  6  8  2  0  0  0
  6 12  1  0  0  0
  7 13  1  0  0  0
  7 14  1  0  0  0
  7 15  1  0  0  0
  8 16  1  0  0  0
M  END