84
 OpenBabel11300911523D

 13 13  0  0  0  0  0  0  0  0999 V2000
    0.9742   -0.0724    0.0977 O   0  0  0  0  0
    2.3372   -0.0340   -0.0085 C   0  0  0  0  0
    3.0427    1.1689   -0.0817 C   0  0  0  0  0
    4.4334    1.1558   -0.1894 C   0  0  0  0  0
    5.1134   -0.0638   -0.2236 C   0  0  0  0  0
    4.4039   -1.2646   -0.1501 C   0  0  0  0  0
    2.2077    2.6760   -0.0399 Cl  0  0  0  0  0
    3.0125   -1.2504   -0.0424 C   0  0  0  0  0
    0.6632    0.8520    0.1075 H   0  0  0  0  0
    4.9917    2.0866   -0.2470 H   0  0  0  0  0
    6.1979   -0.0790   -0.3076 H   0  0  0  0  0
    4.9343   -2.2126   -0.1768 H   0  0  0  0  0
    2.4565   -2.1827    0.0151 H   0  0  0  0  0
  1  2  1  0  0  0
  1  9  1  0  0  0
  2  3  2  0  0  0
  2  8  1  0  0  0
  3  4  1  0  0  0
  3  7  1  0  0  0
  4  5  2  0  0  0
  4 10  1  0  0  0
  5  6  1  0  0  0
  5 11  1  0  0  0
  6  8  2  0  0  0
  6 12  1  0  0  0
  8 13  1  0  0  0
M  END