87
 OpenBabel11300911523D

 14 14  0  0  0  0  0  0  0  0999 V2000
    1.0154   -0.0162    0.2710 N   0  0  0  0  0
    2.3841   -0.0397   -0.0135 C   0  0  0  0  0
    3.1160    1.1499   -0.0355 C   0  0  0  0  0
    4.5050    1.1320   -0.1922 C   0  0  0  0  0
    5.1835   -0.0843   -0.2860 C   0  0  0  0  0
    4.4672   -1.2817   -0.2031 C   0  0  0  0  0
    5.2373   -2.8278   -0.2744 Cl  0  0  0  0  0
    6.8991   -0.0378   -0.4807 Cl  0  0  0  0  0
    3.0762   -1.2535   -0.0463 C   0  0  0  0  0
    0.5431    0.8356   -0.0174 H   0  0  0  0  0
    0.5118   -0.8483   -0.0229 H   0  0  0  0  0
    2.6093    2.1064    0.0699 H   0  0  0  0  0
    5.0510    2.0716   -0.2267 H   0  0  0  0  0
    2.5298   -2.1883    0.0508 H   0  0  0  0  0
  1  2  1  0  0  0
  1 10  1  0  0  0
  1 11  1  0  0  0
  2  3  2  0  0  0
  2  9  1  0  0  0
  3  4  1  0  0  0
  3 12  1  0  0  0
  4  5  2  0  0  0
  4 13  1  0  0  0
  5  6  1  0  0  0
  5  8  1  0  0  0
  6  9  2  0  0  0
  6  7  1  0  0  0
  9 14  1  0  0  0
M  END