89
 OpenBabel11300911173D

 12 11  0  0  0  0  0  0  0  0999 V2000
    2.1056   -0.4882    1.5961 O   0  0  0  0  0
    2.1903   -0.0109    0.2569 C   0  0  0  0  0
    3.0119    1.2771    0.1685 C   0  0  0  0  0
    1.9430    2.7533    0.9287 Br  0  0  0  0  0
    4.3408    1.2386    0.9035 C   0  0  0  0  0
    5.6140    0.0993   -0.0427 Br  0  0  0  0  0
    1.5294   -1.2727    1.5870 H   0  0  0  0  0
    1.1726    0.1411   -0.1195 H   0  0  0  0  0
    2.6532   -0.7987   -0.3461 H   0  0  0  0  0
    3.1424    1.5607   -0.8815 H   0  0  0  0  0
    4.2654    0.8547    1.9248 H   0  0  0  0  0
    4.8179    2.2233    0.9391 H   0  0  0  0  0
  1  2  1  0  0  0
  1  7  1  0  0  0
  2  3  1  0  0  0
  2  8  1  0  0  0
  2  9  1  0  0  0
  3  5  1  0  0  0
  3  4  1  0  0  0
  3 10  1  0  0  0
  5  6  1  0  0  0
  5 11  1  0  0  0
  5 12  1  0  0  0
M  END