91
 OpenBabel11300911523D

 11 10  0  0  0  0  0  0  0  0999 V2000
    3.0965   -1.1195    1.3920 Cl  0  0  0  0  0
    2.7299   -0.0415    0.0190 C   0  0  0  0  0
    3.3620    1.3489    0.1396 C   0  0  0  0  0
    2.6208    2.2558    1.5073 Cl  0  0  0  0  0
    4.8802    1.3614    0.2997 C   0  0  0  0  0
    5.6986    0.6368   -1.1112 Cl  0  0  0  0  0
    1.6396    0.0354   -0.0477 H   0  0  0  0  0
    3.0717   -0.5507   -0.8866 H   0  0  0  0  0
    3.0936    1.9214   -0.7559 H   0  0  0  0  0
    5.2138    0.8205    1.1897 H   0  0  0  0  0
    5.2516    2.3889    0.3777 H   0  0  0  0  0
  1  2  1  0  0  0
  2  3  1  0  0  0
  2  7  1  0  0  0
  2  8  1  0  0  0
  3  5  1  0  0  0
  3  4  1  0  0  0
  3  9  1  0  0  0
  5  6  1  0  0  0
  5 10  1  0  0  0
  5 11  1  0  0  0
M  END