92
 OpenBabel11300911173D

 16 15  0  0  0  0  0  0  0  0999 V2000
    3.6055   -0.8970    2.9037 O   0  0  0  0  0
    3.3641   -0.1325    1.9749 C   0  0  0  0  0
    3.4968   -0.5267    0.5199 C   0  0  0  0  0
    2.1491   -0.3887   -0.1973 C   0  0  0  0  0
    1.1079   -1.3756    0.3142 C   0  0  0  0  0
    4.5502    0.3690   -0.1247 C   0  0  0  0  0
    3.0305    0.9025    2.1681 H   0  0  0  0  0
    3.8392   -1.5677    0.4755 H   0  0  0  0  0
    2.2896   -0.5607   -1.2713 H   0  0  0  0  0
    1.7577    0.6296   -0.0837 H   0  0  0  0  0
    0.1870   -1.2874   -0.2710 H   0  0  0  0  0
    1.4669   -2.4062    0.2279 H   0  0  0  0  0
    0.8571   -1.1841    1.3621 H   0  0  0  0  0
    5.5056    0.2894    0.4051 H   0  0  0  0  0
    4.2483    1.4220   -0.1006 H   0  0  0  0  0
    4.7171    0.0858   -1.1689 H   0  0  0  0  0
  1  2  2  0  0  0
  2  5  1  0  0  0
  2  3  1  0  0  0
  3  4  1  0  0  0
  3  7  1  0  0  0
  3  8  1  0  0  0
  4  9  1  0  0  0
  4 10  1  0  0  0
  4 11  1  0  0  0
  5  6  1  0  0  0
  5 12  1  0  0  0
  5 13  1  0  0  0
  6 14  1  0  0  0
  6 15  1  0  0  0
  6 16  1  0  0  0
M  END