95
 OpenBabel11300911523D

 27 28  0  0  0  0  0  0  0  0999 V2000
    5.5535    1.9232    1.9439 O   0  0  0  0  0
    5.1878    0.9802    1.0269 C   0  0  0  0  0
    4.1875    1.1795    0.0643 C   0  0  0  0  0
    3.8790    0.1062   -0.7940 C   0  0  0  0  0
    4.5534   -1.1127   -0.6873 C   0  0  0  0  0
    5.5529   -1.2859    0.2637 C   0  0  0  0  0
    4.1345   -2.4137   -1.7327 Cl  0  0  0  0  0
    3.4051    2.4673   -0.0711 C   0  0  0  0  0
    4.1963    3.6360   -0.6176 C   0  0  0  0  0
    4.7257    4.6252    0.2222 C   0  0  0  0  0
    4.5492    4.4965    1.5732 O   0  0  0  0  0
    5.4458    5.7062   -0.2855 C   0  0  0  0  0
    5.6493    5.8104   -1.6610 C   0  0  0  0  0
    5.1373    4.8328   -2.5107 C   0  0  0  0  0
    5.3911    4.9632   -4.2088 Cl  0  0  0  0  0
    4.4181    3.7496   -1.9995 C   0  0  0  0  0
    5.8701   -0.2344    1.1206 C   0  0  0  0  0
    5.0546    2.7479    1.7910 H   0  0  0  0  0
    3.0983    0.2138   -1.5441 H   0  0  0  0  0
    6.0808   -2.2310    0.3497 H   0  0  0  0  0
    2.9549    2.7129    0.8989 H   0  0  0  0  0
    2.5384    2.3115   -0.7288 H   0  0  0  0  0
    4.8811    5.3034    2.0075 H   0  0  0  0  0
    5.8624    6.4657    0.3694 H   0  0  0  0  0
    6.2119    6.6491   -2.0623 H   0  0  0  0  0
    4.0281    2.9958   -2.6787 H   0  0  0  0  0
    6.6450   -0.3604    1.8725 H   0  0  0  0  0
  1  2  1  0  0  0
  1 18  1  0  0  0
  2  3  2  0  0  0
  2 17  1  0  0  0
  3  4  1  0  0  0
  3  8  1  0  0  0
  4  5  2  0  0  0
  4 19  1  0  0  0
  5  6  1  0  0  0
  5  7  1  0  0  0
  6 17  2  0  0  0
  6 20  1  0  0  0
  8  9  1  0  0  0
  8 21  1  0  0  0
  8 22  1  0  0  0
  9 10  2  0  0  0
  9 16  1  0  0  0
 10 12  1  0  0  0
 10 11  1  0  0  0
 11 23  1  0  0  0
 12 13  2  0  0  0
 12 24  1  0  0  0
 13 14  1  0  0  0
 13 25  1  0  0  0
 14 16  2  0  0  0
 14 15  1  0  0  0
 16 26  1  0  0  0
 17 27  1  0  0  0
M  END