96
 OpenBabel11300911523D

 25 25  0  0  0  0  0  0  0  0999 V2000
    0.9674   -0.1821    0.5062 O   0  0  0  0  0
    2.2934   -0.1108    0.2003 C   0  0  0  0  0
    2.7426   -0.1927   -1.1097 C   0  0  0  0  0
    4.1147   -0.1162   -1.3756 C   0  0  0  0  0
    5.0581    0.0564   -0.3435 C   0  0  0  0  0
    4.5641    0.1154    0.9735 C   0  0  0  0  0
    6.5683    0.1178   -0.6414 C   0  0  0  0  0
    6.8722    0.7807   -2.0052 C   0  0  0  0  0
    7.3530    0.9243    0.4196 C   0  0  0  0  0
    7.1135   -1.3232   -0.6613 C   0  0  0  0  0
    3.1940    0.0383    1.2428 C   0  0  0  0  0
    0.4663   -0.2815   -0.3197 H   0  0  0  0  0
    2.0502   -0.3210   -1.9356 H   0  0  0  0  0
    4.4291   -0.2043   -2.4118 H   0  0  0  0  0
    5.2332    0.2146    1.8233 H   0  0  0  0  0
    6.5115    0.1820   -2.8482 H   0  0  0  0  0
    7.9517    0.9015   -2.1545 H   0  0  0  0  0
    6.4139    1.7739   -2.0741 H   0  0  0  0  0
    7.3474    0.4356    1.3999 H   0  0  0  0  0
    6.9379    1.9319    0.5396 H   0  0  0  0  0
    8.4069    1.0315    0.1357 H   0  0  0  0  0
    6.9548   -1.8245    0.3010 H   0  0  0  0  0
    8.1895   -1.3367   -0.8691 H   0  0  0  0  0
    6.6197   -1.9287   -1.4305 H   0  0  0  0  0
    2.8357    0.0902    2.2665 H   0  0  0  0  0
  1  2  1  0  0  0
  1 12  1  0  0  0
  2  3  2  0  0  0
  2 11  1  0  0  0
  3  4  1  0  0  0
  3 13  1  0  0  0
  4  5  2  0  0  0
  4 14  1  0  0  0
  5  6  1  0  0  0
  5  7  1  0  0  0
  6 11  2  0  0  0
  6 15  1  0  0  0
  7 10  1  0  0  0
  7  9  1  0  0  0
  7  8  1  0  0  0
  8 16  1  0  0  0
  8 17  1  0  0  0
  8 18  1  0  0  0
  9 19  1  0  0  0
  9 20  1  0  0  0
  9 21  1  0  0  0
 10 22  1  0  0  0
 10 23  1  0  0  0
 10 24  1  0  0  0
 11 25  1  0  0  0
M  END