100
 OpenBabel11300911523D

 17 17  0  0  0  0  0  0  0  0999 V2000
    0.9319    0.0041    0.0454 N   0  0  0  0  0
    0.3292   -1.0758   -0.0423 O   0  0  0  0  0
    0.3800    1.1044    0.1943 O   0  0  0  0  0
    2.3978   -0.0205   -0.0321 C   0  0  0  0  0
    3.1163    1.1782    0.0578 C   0  0  0  0  0
    4.5083    1.1491   -0.0238 C   0  0  0  0  0
    5.1761   -0.0670   -0.1893 C   0  0  0  0  0
    4.4634   -1.2717   -0.2653 C   0  0  0  0  0
    5.1913   -2.5673   -0.4767 C   0  0  0  0  0
    3.0639   -1.2437   -0.1988 C   0  0  0  0  0
    2.6119    2.1335    0.1861 H   0  0  0  0  0
    5.0762    2.0749    0.0385 H   0  0  0  0  0
    6.2628   -0.0695   -0.2581 H   0  0  0  0  0
    4.6033   -3.4141   -0.1074 H   0  0  0  0  0
    6.1420   -2.5704    0.0668 H   0  0  0  0  0
    5.3896   -2.7151   -1.5428 H   0  0  0  0  0
    2.5044   -2.1744   -0.2762 H   0  0  0  0  0
  1  4  1  0  0  0
  1  3  2  0  0  0
  1  2  2  0  0  0
  4  5  2  0  0  0
  4 10  1  0  0  0
  5  6  1  0  0  0
  5 11  1  0  0  0
  6  7  2  0  0  0
  6 12  1  0  0  0
  7  8  1  0  0  0
  7 13  1  0  0  0
  8 10  2  0  0  0
  8  9  1  0  0  0
  9 14  1  0  0  0
  9 15  1  0  0  0
  9 16  1  0  0  0
 10 17  1  0  0  0
M  END