102
 OpenBabel11300911523D

 16 16  0  0  0  0  0  0  0  0999 V2000
    0.9421    0.0155    0.0995 N   0  0  0  0  0
    0.3737   -1.0852    0.0554 O   0  0  0  0  0
    0.3609    1.1010    0.2426 O   0  0  0  0  0
    2.4038    0.0353   -0.0316 C   0  0  0  0  0
    3.0900    1.2537    0.0165 C   0  0  0  0  0
    4.4831    1.2626   -0.1059 C   0  0  0  0  0
    5.1928    0.0761   -0.3192 C   0  0  0  0  0
    6.5910    0.0839   -0.3099 N   0  0  0  0  0
    4.4978   -1.1379   -0.3049 C   0  0  0  0  0
    3.1047   -1.1661   -0.1841 C   0  0  0  0  0
    2.5651    2.1952    0.1624 H   0  0  0  0  0
    5.0131    2.2096   -0.0325 H   0  0  0  0  0
    7.0142   -0.7210   -0.7623 H   0  0  0  0  0
    7.0039    0.9573   -0.6231 H   0  0  0  0  0
    5.0393   -2.0775   -0.3880 H   0  0  0  0  0
    2.5916   -2.1251   -0.1957 H   0  0  0  0  0
  1  4  1  0  0  0
  1  3  2  0  0  0
  1  2  2  0  0  0
  4  5  2  0  0  0
  4 10  1  0  0  0
  5  6  1  0  0  0
  5 11  1  0  0  0
  6  7  2  0  0  0
  6 12  1  0  0  0
  7  9  1  0  0  0
  7  8  1  0  0  0
  8 13  1  0  0  0
  8 14  1  0  0  0
  9 10  2  0  0  0
  9 15  1  0  0  0
 10 16  1  0  0  0
M  END