103
 OpenBabel11300911523D

 15 15  0  0  0  0  0  0  0  0999 V2000
    0.9515    0.0120    0.1018 N   0  0  0  0  0
    0.3860   -1.0890    0.0459 O   0  0  0  0  0
    0.3678    1.0946    0.2564 O   0  0  0  0  0
    2.4144    0.0355   -0.0239 C   0  0  0  0  0
    3.0971    1.2582    0.0305 C   0  0  0  0  0
    4.4879    1.2710   -0.0898 C   0  0  0  0  0
    5.1798    0.0751   -0.2618 C   0  0  0  0  0
    6.5362    0.1427   -0.3740 O   0  0  0  0  0
    4.5079   -1.1437   -0.3167 C   0  0  0  0  0
    3.1156   -1.1675   -0.1974 C   0  0  0  0  0
    2.5680    2.1994    0.1644 H   0  0  0  0  0
    5.0325    2.2113   -0.0498 H   0  0  0  0  0
    6.8911   -0.7543   -0.4887 H   0  0  0  0  0
    5.0464   -2.0776   -0.4509 H   0  0  0  0  0
    2.5959   -2.1225   -0.2410 H   0  0  0  0  0
  1  4  1  0  0  0
  1  3  2  0  0  0
  1  2  2  0  0  0
  4  5  2  0  0  0
  4 10  1  0  0  0
  5  6  1  0  0  0
  5 11  1  0  0  0
  6  7  2  0  0  0
  6 12  1  0  0  0
  7  9  1  0  0  0
  7  8  1  0  0  0
  8 13  1  0  0  0
  9 10  2  0  0  0
  9 14  1  0  0  0
 10 15  1  0  0  0
M  END