105
 OpenBabel11300911173D

 23 22  0  0  0  0  0  0  0  0999 V2000
    0.7071    1.8469    0.5763 O   0  0  0  0  0
    2.1164    2.0596    0.6427 C   0  0  0  0  0
    2.7740    1.5383   -0.6435 C   0  0  0  0  0
    4.2500    1.6064   -0.6416 N   0  0  0  0  0
    4.8184    0.7295   -1.6812 C   0  0  0  0  0
    4.4988    1.0953   -3.1284 C   0  0  0  0  0
    4.7309    2.9963   -0.7005 C   0  0  0  0  0
    6.2497    3.1333   -0.6314 C   0  0  0  0  0
    0.3385    2.1542    1.4226 H   0  0  0  0  0
    2.5038    1.5274    1.5176 H   0  0  0  0  0
    2.2816    3.1324    0.7743 H   0  0  0  0  0
    2.3505    2.0704   -1.5052 H   0  0  0  0  0
    2.4544    0.4933   -0.7570 H   0  0  0  0  0
    4.4761   -0.2979   -1.4993 H   0  0  0  0  0
    5.9064    0.6733   -1.5602 H   0  0  0  0  0
    3.4254    1.0353   -3.3320 H   0  0  0  0  0
    4.9998    0.3947   -3.8047 H   0  0  0  0  0
    4.8457    2.1008   -3.3825 H   0  0  0  0  0
    4.3393    3.5471    0.1616 H   0  0  0  0  0
    4.3604    3.5098   -1.5956 H   0  0  0  0  0
    6.6599    2.5763    0.2176 H   0  0  0  0  0
    6.5226    4.1863   -0.5026 H   0  0  0  0  0
    6.7328    2.7818   -1.5481 H   0  0  0  0  0
  1  2  1  0  0  0
  1  9  1  0  0  0
  2  3  1  0  0  0
  2 10  1  0  0  0
  2 11  1  0  0  0
  3  4  1  0  0  0
  3 12  1  0  0  0
  3 13  1  0  0  0
  4  7  1  0  0  0
  4  5  1  0  0  0
  5  6  1  0  0  0
  5 14  1  0  0  0
  5 15  1  0  0  0
  6 16  1  0  0  0
  6 17  1  0  0  0
  6 18  1  0  0  0
  7  8  1  0  0  0
  7 19  1  0  0  0
  7 20  1  0  0  0
  8 21  1  0  0  0
  8 22  1  0  0  0
  8 23  1  0  0  0
M  END