106
 OpenBabel11300911173D

 18 18  0  0  0  0  0  0  0  0999 V2000
   -1.3314   -0.0650   -0.0778 C   0  0  0  0  0
   -0.6742    1.1722   -0.0412 C   0  0  0  0  0
    0.7190    1.2312    0.0211 C   0  0  0  0  0
    1.4676    0.0560    0.0416 C   0  0  0  0  0
    0.8245   -1.1787   -0.0015 C   0  0  0  0  0
   -0.5685   -1.2407   -0.0640 C   0  0  0  0  0
   -2.8350   -0.1301   -0.1633 C   0  0  0  0  0
   -3.3198   -0.1376   -1.6049 C   0  0  0  0  0
   -1.2456    2.0975   -0.0613 H   0  0  0  0  0
    1.2198    2.1953    0.0514 H   0  0  0  0  0
    2.5516    0.1032    0.0895 H   0  0  0  0  0
    1.4072   -2.0960    0.0110 H   0  0  0  0  0
   -1.0573   -2.2118   -0.1018 H   0  0  0  0  0
   -3.2718    0.7227    0.3705 H   0  0  0  0  0
   -3.1951   -1.0278    0.3538 H   0  0  0  0  0
   -3.0042    0.7674   -2.1350 H   0  0  0  0  0
   -4.4127   -0.1851   -1.6361 H   0  0  0  0  0
   -2.9268   -1.0013   -2.1518 H   0  0  0  0  0
  1  2  2  0  0  0
  1  6  1  0  0  0
  1  7  1  0  0  0
  2  3  1  0  0  0
  2  9  1  0  0  0
  3  4  2  0  0  0
  3 10  1  0  0  0
  4  5  1  0  0  0
  4 11  1  0  0  0
  5  6  2  0  0  0
  5 12  1  0  0  0
  6 13  1  0  0  0
  7  8  1  0  0  0
  7 14  1  0  0  0
  7 15  1  0  0  0
  8 16  1  0  0  0
  8 17  1  0  0  0
  8 18  1  0  0  0
M  END