109
 OpenBabel11300911523D

 14 14  0  0  0  0  0  0  0  0999 V2000
    2.7565   -1.0879   -0.0037 O   0  0  0  0  0
    2.1924   -0.0052    0.0993 C   0  0  0  0  0
    2.9193    1.2755   -0.0077 C   0  0  0  0  0
    2.2143    2.4759    0.1196 C   0  0  0  0  0
    2.8968    3.6897    0.0192 C   0  0  0  0  0
    4.2742    3.7012   -0.2066 C   0  0  0  0  0
    4.9748    2.5010   -0.3332 C   0  0  0  0  0
    4.2984    1.2846   -0.2338 C   0  0  0  0  0
    1.1068    0.0592    0.2779 H   0  0  0  0  0
    1.1419    2.4803    0.2955 H   0  0  0  0  0
    2.3563    4.6283    0.1170 H   0  0  0  0  0
    4.8037    4.6476   -0.2844 H   0  0  0  0  0
    6.0480    2.5119   -0.5091 H   0  0  0  0  0
    4.8457    0.3492   -0.3327 H   0  0  0  0  0
  1  2  2  0  0  0
  2  3  1  0  0  0
  2  9  1  0  0  0
  3  4  2  0  0  0
  3  8  1  0  0  0
  4  5  1  0  0  0
  4 10  1  0  0  0
  5  6  2  0  0  0
  5 11  1  0  0  0
  6  7  1  0  0  0
  6 12  1  0  0  0
  7  8  2  0  0  0
  7 13  1  0  0  0
  8 14  1  0  0  0
M  END