110
 OpenBabel11300911523D

 17 17  0  0  0  0  0  0  0  0999 V2000
    0.8862    0.1400    0.6501 N   0  0  0  0  0
    0.2654    1.3298    0.2539 C   0  0  0  0  0
   -1.0142    1.2571   -0.3171 C   0  0  0  0  0
   -1.7214    2.4097   -0.6728 C   0  0  0  0  0
   -1.1694    3.6638   -0.4358 C   0  0  0  0  0
    0.0802    3.7605    0.1687 C   0  0  0  0  0
    0.7824    2.6025    0.5229 C   0  0  0  0  0
    2.3129    0.1346    0.9196 C   0  0  0  0  0
    0.5895   -0.6466    0.0780 H   0  0  0  0  0
   -1.4774    0.2889   -0.4890 H   0  0  0  0  0
   -2.7063    2.3233   -1.1236 H   0  0  0  0  0
   -1.7171    4.5626   -0.7055 H   0  0  0  0  0
    0.5086    4.7368    0.3781 H   0  0  0  0  0
    1.7413    2.7223    1.0169 H   0  0  0  0  0
    2.5545    0.7287    1.8065 H   0  0  0  0  0
    2.8827    0.5025    0.0605 H   0  0  0  0  0
    2.6353   -0.8917    1.1202 H   0  0  0  0  0
  1  8  1  0  0  0
  1  2  1  0  0  0
  1  9  1  0  0  0
  2  3  2  0  0  0
  2  7  1  0  0  0
  3  4  1  0  0  0
  3 10  1  0  0  0
  4  5  2  0  0  0
  4 11  1  0  0  0
  5  6  1  0  0  0
  5 12  1  0  0  0
  6  7  2  0  0  0
  6 13  1  0  0  0
  7 14  1  0  0  0
  8 15  1  0  0  0
  8 16  1  0  0  0
  8 17  1  0  0  0
M  END