111
 OpenBabel11300911523D

 12 12  0  0  0  0  0  0  0  0999 V2000
    1.0260    0.0483    0.1144 C   0  0  0  0  0
   -0.1328    0.0665    0.2048 N   0  0  0  0  0
    2.4576   -0.0292    0.0016 C   0  0  0  0  0
    3.1155    1.1554   -0.0384 N   0  0  0  0  0
    4.4609    1.1013   -0.1447 C   0  0  0  0  0
    5.1811   -0.0806   -0.2127 C   0  0  0  0  0
    4.4831   -1.2833   -0.1696 C   0  0  0  0  0
    3.0952   -1.2629   -0.0604 C   0  0  0  0  0
    4.9629    2.0652   -0.1747 H   0  0  0  0  0
    6.2626   -0.0641   -0.2975 H   0  0  0  0  0
    5.0167   -2.2289   -0.2208 H   0  0  0  0  0
    2.5310   -2.1899   -0.0253 H   0  0  0  0  0
  1  3  1  0  0  0
  1  2  3  0  0  0
  3  4  2  0  0  0
  3  8  1  0  0  0
  4  5  1  0  0  0
  5  6  2  0  0  0
  5  9  1  0  0  0
  6  7  1  0  0  0
  6 10  1  0  0  0
  7  8  2  0  0  0
  7 11  1  0  0  0
  8 12  1  0  0  0
M  END