112
 OpenBabel11300911533D

 17 17  0  0  0  0  0  0  0  0999 V2000
   -0.6293   -1.1989   -0.0298 N   0  0  0  0  0
   -1.3007   -0.0227   -0.0655 C   0  0  0  0  0
   -0.6507    1.2093   -0.0604 C   0  0  0  0  0
    0.7401    1.2357   -0.0052 C   0  0  0  0  0
    1.4420    0.0378    0.0385 C   0  0  0  0  0
   -2.8026   -0.0958   -0.1459 C   0  0  0  0  0
   -3.2871   -0.0847   -1.5872 C   0  0  0  0  0
    0.7196   -1.1427    0.0237 C   0  0  0  0  0
   -1.2142    2.1358   -0.0997 H   0  0  0  0  0
    1.2704    2.1834    0.0019 H   0  0  0  0  0
    2.5248    0.0234    0.0815 H   0  0  0  0  0
   -3.2472    0.7393    0.4081 H   0  0  0  0  0
   -3.1445   -1.0140    0.3465 H   0  0  0  0  0
   -2.9893    0.8361   -2.0999 H   0  0  0  0  0
   -4.3790   -0.1533   -1.6201 H   0  0  0  0  0
   -2.8761   -0.9299   -2.1496 H   0  0  0  0  0
    1.2206   -2.1061    0.0541 H   0  0  0  0  0
  1  2  2  0  0  0
  1  8  1  0  0  0
  2  3  1  0  0  0
  2  6  1  0  0  0
  3  4  2  0  0  0
  3  9  1  0  0  0
  4  5  1  0  0  0
  4 10  1  0  0  0
  5  8  2  0  0  0
  5 11  1  0  0  0
  6  7  1  0  0  0
  6 12  1  0  0  0
  6 13  1  0  0  0
  7 14  1  0  0  0
  7 15  1  0  0  0
  7 16  1  0  0  0
  8 17  1  0  0  0
M  END