113
 OpenBabel11300911533D

 21 21  0  0  0  0  0  0  0  0999 V2000
   -0.6903   -1.0230    0.5532 O   0  0  0  0  0
    0.5348   -1.1109   -0.1767 C   0  0  0  0  0
    1.1719    0.2336    0.0594 C   0  0  0  0  0
    0.0561    1.1376    0.0045 O   0  0  0  0  0
    2.2060    0.6155   -0.9870 C   0  0  0  0  0
    2.7384    1.9059   -0.6882 O   0  0  0  0  0
   -1.0537    0.3665    0.4971 C   0  0  0  0  0
   -2.2273    0.5415   -0.4583 C   0  0  0  0  0
   -1.4081    0.8349    1.9027 C   0  0  0  0  0
    0.2883   -1.2794   -1.2313 H   0  0  0  0  0
    1.1381   -1.9460    0.1888 H   0  0  0  0  0
    1.5911    0.3094    1.0692 H   0  0  0  0  0
    1.7613    0.6713   -1.9862 H   0  0  0  0  0
    3.0341   -0.0990   -1.0063 H   0  0  0  0  0
    1.9648    2.4806   -0.5268 H   0  0  0  0  0
   -1.9557    0.2063   -1.4657 H   0  0  0  0  0
   -2.5224    1.5928   -0.5369 H   0  0  0  0  0
   -3.0901   -0.0529   -0.1411 H   0  0  0  0  0
   -0.5571    0.6987    2.5797 H   0  0  0  0  0
   -2.2433    0.2590    2.3149 H   0  0  0  0  0
   -1.6633    1.8994    1.9143 H   0  0  0  0  0
  1  2  1  0  0  0
  1  7  1  0  0  0
  2  3  1  0  0  0
  2 10  1  0  0  0
  2 11  1  0  0  0
  3  4  1  0  0  0
  3  5  1  0  0  0
  3 12  1  0  0  0
  4  7  1  0  0  0
  5  6  1  0  0  0
  5 13  1  0  0  0
  5 14  1  0  0  0
  6 15  1  0  0  0
  7  9  1  0  0  0
  7  8  1  0  0  0
  8 16  1  0  0  0
  8 17  1  0  0  0
  8 18  1  0  0  0
  9 19  1  0  0  0
  9 20  1  0  0  0
  9 21  1  0  0  0
M  END