115
 OpenBabel11300911183D

 28 28  0  0  0  0  0  0  0  0999 V2000
    0.9616    1.6132   -0.1840 O   0  0  0  0  0
    2.3533    1.6280    0.1409 C   0  0  0  0  0
    2.7155    0.2804    0.7957 C   0  0  0  0  0
    1.9163   -0.0363    2.0660 C   0  0  0  0  0
    2.3032   -1.3780    2.6429 C   0  0  0  0  0
    3.3454   -1.4786    3.5734 C   0  0  0  0  0
    3.7094   -2.7207    4.0964 C   0  0  0  0  0
    3.0386   -3.8727    3.6897 C   0  0  0  0  0
    2.0053   -3.7841    2.7583 C   0  0  0  0  0
    1.6403   -2.5430    2.2345 C   0  0  0  0  0
    3.1417    1.7949   -1.1629 C   0  0  0  0  0
    2.6208    2.8173    1.0667 C   0  0  0  0  0
    0.7466    2.4533   -0.6249 H   0  0  0  0  0
    3.7902    0.2582    1.0202 H   0  0  0  0  0
    2.5315   -0.5240    0.0698 H   0  0  0  0  0
    0.8399   -0.0312    1.8566 H   0  0  0  0  0
    2.0810    0.7313    2.8305 H   0  0  0  0  0
    3.8792   -0.5883    3.8980 H   0  0  0  0  0
    4.5164   -2.7892    4.8206 H   0  0  0  0  0
    3.3214   -4.8394    4.0975 H   0  0  0  0  0
    1.4833   -4.6821    2.4386 H   0  0  0  0  0
    0.8348   -2.4873    1.5057 H   0  0  0  0  0
    2.8687    2.7277   -1.6695 H   0  0  0  0  0
    2.9110    0.9853   -1.8643 H   0  0  0  0  0
    4.2213    1.8029   -0.9823 H   0  0  0  0  0
    2.4260    3.7634    0.5488 H   0  0  0  0  0
    3.6569    2.8270    1.4195 H   0  0  0  0  0
    1.9517    2.8097    1.9332 H   0  0  0  0  0
  1  2  1  0  0  0
  1 13  1  0  0  0
  2 12  1  0  0  0
  2 11  1  0  0  0
  2  3  1  0  0  0
  3  4  1  0  0  0
  3 14  1  0  0  0
  3 15  1  0  0  0
  4  5  1  0  0  0
  4 16  1  0  0  0
  4 17  1  0  0  0
  5  6  2  0  0  0
  5 10  1  0  0  0
  6  7  1  0  0  0
  6 18  1  0  0  0
  7  8  2  0  0  0
  7 19  1  0  0  0
  8  9  1  0  0  0
  8 20  1  0  0  0
  9 10  2  0  0  0
  9 21  1  0  0  0
 10 22  1  0  0  0
 11 23  1  0  0  0
 11 24  1  0  0  0
 11 25  1  0  0  0
 12 26  1  0  0  0
 12 27  1  0  0  0
 12 28  1  0  0  0
M  END