117
 OpenBabel11300911183D

 40 40  0  0  0  0  0  0  0  0999 V2000
    0.9957   -0.0180    0.7213 O   0  0  0  0  0
    2.3129    0.0111    0.3696 C   0  0  0  0  0
    2.7094   -0.0589   -0.9618 C   0  0  0  0  0
    4.0701   -0.0266   -1.2760 C   0  0  0  0  0
    5.0331    0.0807   -0.2622 C   0  0  0  0  0
    4.6124    0.1432    1.0736 C   0  0  0  0  0
    6.5032    0.0953   -0.6010 C   0  0  0  0  0
    7.0883   -1.3181   -0.6351 C   0  0  0  0  0
    8.5809   -1.2942   -0.9689 C   0  0  0  0  0
    9.1620   -2.7084   -1.0112 C   0  0  0  0  0
   10.6576   -2.6894   -1.3314 C   0  0  0  0  0
   11.2297   -4.1069   -1.3876 C   0  0  0  0  0
   12.7282   -4.0932   -1.6935 C   0  0  0  0  0
   13.2921   -5.5123   -1.7650 C   0  0  0  0  0
   14.7836   -5.5062   -2.0595 C   0  0  0  0  0
    3.2529    0.1108    1.3876 C   0  0  0  0  0
    0.4633   -0.0883   -0.0876 H   0  0  0  0  0
    1.9820   -0.1404   -1.7629 H   0  0  0  0  0
    4.3772   -0.0869   -2.3177 H   0  0  0  0  0
    5.3410    0.2161    1.8775 H   0  0  0  0  0
    7.0395    0.7099    0.1331 H   0  0  0  0  0
    6.6482    0.5886   -1.5706 H   0  0  0  0  0
    6.5553   -1.9238   -1.3790 H   0  0  0  0  0
    6.9381   -1.8072    0.3358 H   0  0  0  0  0
    9.1155   -0.6989   -0.2188 H   0  0  0  0  0
    8.7332   -0.8056   -1.9390 H   0  0  0  0  0
    8.6318   -3.3000   -1.7675 H   0  0  0  0  0
    9.0006   -3.2009   -0.0444 H   0  0  0  0  0
   11.1891   -2.1076   -0.5685 H   0  0  0  0  0
   10.8219   -2.1886   -2.2932 H   0  0  0  0  0
   10.7029   -4.6842   -2.1572 H   0  0  0  0  0
   11.0559   -4.6117   -0.4295 H   0  0  0  0  0
   13.2563   -3.5261   -0.9174 H   0  0  0  0  0
   12.9051   -3.5794   -2.6462 H   0  0  0  0  0
   12.7736   -6.0795   -2.5469 H   0  0  0  0  0
   13.1152   -6.0320   -0.8161 H   0  0  0  0  0
   14.9926   -5.0184   -3.0168 H   0  0  0  0  0
   15.1637   -6.5313   -2.1105 H   0  0  0  0  0
   15.3357   -4.9777   -1.2760 H   0  0  0  0  0
    2.9292    0.1613    2.4230 H   0  0  0  0  0
  1  2  1  0  0  0
  1 17  1  0  0  0
  2  3  2  0  0  0
  2 16  1  0  0  0
  3  4  1  0  0  0
  3 18  1  0  0  0
  4  5  2  0  0  0
  4 19  1  0  0  0
  5  6  1  0  0  0
  5  7  1  0  0  0
  6 16  2  0  0  0
  6 20  1  0  0  0
  7  8  1  0  0  0
  7 21  1  0  0  0
  7 22  1  0  0  0
  8  9  1  0  0  0
  8 23  1  0  0  0
  8 24  1  0  0  0
  9 10  1  0  0  0
  9 25  1  0  0  0
  9 26  1  0  0  0
 10 11  1  0  0  0
 10 27  1  0  0  0
 10 28  1  0  0  0
 11 12  1  0  0  0
 11 29  1  0  0  0
 11 30  1  0  0  0
 12 13  1  0  0  0
 12 31  1  0  0  0
 12 32  1  0  0  0
 13 14  1  0  0  0
 13 33  1  0  0  0
 13 34  1  0  0  0
 14 15  1  0  0  0
 14 35  1  0  0  0
 14 36  1  0  0  0
 15 37  1  0  0  0
 15 38  1  0  0  0
 15 39  1  0  0  0
 16 40  1  0  0  0
M  END