118
 OpenBabel11300911533D

 27 26  0  0  0  0  0  0  0  0999 V2000
    3.3436   -1.3095    0.0855 O   0  0  0  0  0
    2.5666   -0.2858   -0.5195 C   0  0  0  0  0
    3.0837    1.1162   -0.1565 C   0  0  0  0  0
    2.9905    1.4205    1.3579 C   0  0  0  0  0
    1.5662    1.3611    1.9163 C   0  0  0  0  0
    1.5368    1.7463    3.3968 C   0  0  0  0  0
    0.1251    1.6904    3.9596 C   0  0  0  0  0
    4.5469    1.3345   -0.6067 C   0  0  0  0  0
    4.7602    1.1921   -2.1073 C   0  0  0  0  0
    3.1869   -1.2719    1.0438 H   0  0  0  0  0
    1.5216   -0.4222   -0.2252 H   0  0  0  0  0
    2.5979   -0.4418   -1.6028 H   0  0  0  0  0
    2.4553    1.8463   -0.6838 H   0  0  0  0  0
    3.3890    2.4279    1.5367 H   0  0  0  0  0
    3.6340    0.7322    1.9204 H   0  0  0  0  0
    1.1579    0.3507    1.8099 H   0  0  0  0  0
    0.9193    2.0383    1.3467 H   0  0  0  0  0
    1.9376    2.7586    3.5291 H   0  0  0  0  0
    2.1786    1.0658    3.9694 H   0  0  0  0  0
   -0.5310    2.3955    3.4405 H   0  0  0  0  0
    0.1307    1.9498    5.0225 H   0  0  0  0  0
   -0.2984    0.6867    3.8571 H   0  0  0  0  0
    5.2142    0.6395   -0.0824 H   0  0  0  0  0
    4.8604    2.3456   -0.3175 H   0  0  0  0  0
    4.6199    0.1592   -2.4377 H   0  0  0  0  0
    5.7827    1.4829   -2.3686 H   0  0  0  0  0
    4.0722    1.8345   -2.6655 H   0  0  0  0  0
  1  2  1  0  0  0
  1 10  1  0  0  0
  2  3  1  0  0  0
  2 11  1  0  0  0
  2 12  1  0  0  0
  3  8  1  0  0  0
  3  4  1  0  0  0
  3 13  1  0  0  0
  4  5  1  0  0  0
  4 14  1  0  0  0
  4 15  1  0  0  0
  5  6  1  0  0  0
  5 16  1  0  0  0
  5 17  1  0  0  0
  6  7  1  0  0  0
  6 18  1  0  0  0
  6 19  1  0  0  0
  7 20  1  0  0  0
  7 21  1  0  0  0
  7 22  1  0  0  0
  8  9  1  0  0  0
  8 23  1  0  0  0
  8 24  1  0  0  0
  9 25  1  0  0  0
  9 26  1  0  0  0
  9 27  1  0  0  0
M  END