120
 OpenBabel11300911533D

 20 20  0  0  0  0  0  0  0  0999 V2000
   -0.6964   -1.1989    0.0711 N   0  0  0  0  0
   -1.4121   -0.0587   -0.0619 C   0  0  0  0  0
   -0.8134    1.1877   -0.2148 C   0  0  0  0  0
    0.5773    1.2687   -0.2271 C   0  0  0  0  0
    1.3396    0.1090   -0.0832 C   0  0  0  0  0
    2.8405    0.1486   -0.1109 C   0  0  0  0  0
    3.3850    0.0593   -1.5284 C   0  0  0  0  0
   -2.9062   -0.1789   -0.0486 C   0  0  0  0  0
    0.6518   -1.0911    0.0551 C   0  0  0  0  0
   -1.4149    2.0836   -0.3245 H   0  0  0  0  0
    1.0582    2.2362   -0.3497 H   0  0  0  0  0
    3.2443   -0.6739    0.4925 H   0  0  0  0  0
    3.1924    1.0733    0.3640 H   0  0  0  0  0
    3.0747   -0.8714   -2.0144 H   0  0  0  0  0
    4.4790    0.0874   -1.5156 H   0  0  0  0  0
    3.0316    0.8936   -2.1430 H   0  0  0  0  0
   -3.3287    0.4321    0.7553 H   0  0  0  0  0
   -3.2126   -1.2170    0.1167 H   0  0  0  0  0
   -3.3200    0.1507   -1.0069 H   0  0  0  0  0
    1.1806   -2.0346    0.1603 H   0  0  0  0  0
  1  2  2  0  0  0
  1  9  1  0  0  0
  2  3  1  0  0  0
  2  8  1  0  0  0
  3  4  2  0  0  0
  3 10  1  0  0  0
  4  5  1  0  0  0
  4 11  1  0  0  0
  5  9  2  0  0  0
  5  6  1  0  0  0
  6  7  1  0  0  0
  6 12  1  0  0  0
  6 13  1  0  0  0
  7 14  1  0  0  0
  7 15  1  0  0  0
  7 16  1  0  0  0
  8 17  1  0  0  0
  8 18  1  0  0  0
  8 19  1  0  0  0
  9 20  1  0  0  0
M  END