121
 OpenBabel11300911533D

 19 19  0  0  0  0  0  0  0  0999 V2000
    0.9753   -0.1212    0.1451 O   0  0  0  0  0
    2.3315   -0.0473   -0.0044 C   0  0  0  0  0
    3.0169    1.1653   -0.1342 C   0  0  0  0  0
    4.4125    1.1269   -0.2988 C   0  0  0  0  0
    5.1094   -0.0902   -0.3206 C   0  0  0  0  0
    4.3962   -1.2853   -0.1846 C   0  0  0  0  0
    6.5973   -0.1244   -0.5110 C   0  0  0  0  0
    2.3158    2.4921   -0.1152 C   0  0  0  0  0
    3.0117   -1.2620   -0.0261 C   0  0  0  0  0
    0.5997    0.7701    0.0975 H   0  0  0  0  0
    4.9662    2.0582   -0.4113 H   0  0  0  0  0
    4.9140   -2.2405   -0.2043 H   0  0  0  0  0
    7.0292    0.8813   -0.4802 H   0  0  0  0  0
    6.8408   -0.5700   -1.4805 H   0  0  0  0  0
    7.0677   -0.7115    0.2840 H   0  0  0  0  0
    3.0255    3.3258   -0.1464 H   0  0  0  0  0
    1.7282    2.5994    0.8027 H   0  0  0  0  0
    1.6557    2.5820   -0.9835 H   0  0  0  0  0
    2.4603   -2.1926    0.0777 H   0  0  0  0  0
  1  2  1  0  0  0
  1 10  1  0  0  0
  2  3  2  0  0  0
  2  9  1  0  0  0
  3  4  1  0  0  0
  3  8  1  0  0  0
  4  5  2  0  0  0
  4 11  1  0  0  0
  5  6  1  0  0  0
  5  7  1  0  0  0
  6  9  2  0  0  0
  6 12  1  0  0  0
  7 13  1  0  0  0
  7 14  1  0  0  0
  7 15  1  0  0  0
  8 16  1  0  0  0
  8 17  1  0  0  0
  8 18  1  0  0  0
  9 19  1  0  0  0
M  END