122
 OpenBabel11300911533D

 36 35  0  0  0  0  0  0  0  0999 V2000
    2.5782   -0.1664   -2.1793 O   0  0  0  0  0
    1.4587    0.1635   -1.8239 C   0  0  0  0  0
    0.3924   -0.6461   -1.6356 O   0  0  0  0  0
    0.6638   -2.0512   -1.7672 C   0  0  0  0  0
    1.1714   -2.5834   -0.4316 C   0  0  0  0  0
    1.4627   -4.0791   -0.4801 C   0  0  0  0  0
    1.9460   -4.5851    0.8704 C   0  0  0  0  0
    1.0638    1.5344   -1.4648 C   0  0  0  0  0
    1.9844    2.5050   -1.5394 C   0  0  0  0  0
    1.6426    3.8723   -1.1209 C   0  0  0  0  0
    0.5891    4.2090   -0.6119 O   0  0  0  0  0
    2.7145    4.6521   -1.3849 O   0  0  0  0  0
    2.6342    6.0159   -0.9459 C   0  0  0  0  0
    4.0352    6.4178   -0.4980 C   0  0  0  0  0
    4.1102    7.8004    0.1420 C   0  0  0  0  0
    3.7573    8.9279   -0.8137 C   0  0  0  0  0
    1.3699   -2.2457   -2.5833 H   0  0  0  0  0
   -0.2809   -2.5374   -2.0358 H   0  0  0  0  0
    0.4290   -2.3661    0.3465 H   0  0  0  0  0
    2.0777   -2.0385   -0.1364 H   0  0  0  0  0
    2.2271   -4.2851   -1.2379 H   0  0  0  0  0
    0.5590   -4.6275   -0.7696 H   0  0  0  0  0
    2.8568   -4.0634    1.1815 H   0  0  0  0  0
    2.1671   -5.6553    0.8187 H   0  0  0  0  0
    1.1836   -4.4314    1.6407 H   0  0  0  0  0
    0.0517    1.7059   -1.1197 H   0  0  0  0  0
    2.9991    2.3218   -1.8773 H   0  0  0  0  0
    1.9243    6.1383   -0.1191 H   0  0  0  0  0
    2.3035    6.6234   -1.7950 H   0  0  0  0  0
    4.7221    6.3570   -1.3524 H   0  0  0  0  0
    4.4009    5.6746    0.2228 H   0  0  0  0  0
    5.1308    7.9578    0.5089 H   0  0  0  0  0
    3.4494    7.8416    1.0161 H   0  0  0  0  0
    4.3823    8.8923   -1.7111 H   0  0  0  0  0
    3.9178    9.8954   -0.3265 H   0  0  0  0  0
    2.7079    8.8797   -1.1192 H   0  0  0  0  0
  1  2  2  0  0  0
  2  8  1  0  0  0
  2  3  1  0  0  0
  3  4  1  0  0  0
  4  5  1  0  0  0
  4 17  1  0  0  0
  4 18  1  0  0  0
  5  6  1  0  0  0
  5 19  1  0  0  0
  5 20  1  0  0  0
  6  7  1  0  0  0
  6 21  1  0  0  0
  6 22  1  0  0  0
  7 23  1  0  0  0
  7 24  1  0  0  0
  7 25  1  0  0  0
  8  9  2  0  0  0
  8 26  1  0  0  0
  9 10  1  0  0  0
  9 27  1  0  0  0
 10 12  1  0  0  0
 10 11  2  0  0  0
 12 13  1  0  0  0
 13 14  1  0  0  0
 13 28  1  0  0  0
 13 29  1  0  0  0
 14 15  1  0  0  0
 14 30  1  0  0  0
 14 31  1  0  0  0
 15 16  1  0  0  0
 15 32  1  0  0  0
 15 33  1  0  0  0
 16 34  1  0  0  0
 16 35  1  0  0  0
 16 36  1  0  0  0
M  END