123
 OpenBabel11300911533D

 44 43  0  0  0  0  0  0  0  0999 V2000
    2.2334   -0.8116    0.4614 O   0  0  0  0  0
    2.6637   -0.0374   -0.3818 C   0  0  0  0  0
    2.9612   -0.3524   -1.6728 O   0  0  0  0  0
    2.9012   -1.7483   -2.0054 C   0  0  0  0  0
    4.2384   -2.3979   -1.6572 C   0  0  0  0  0
    4.2849   -3.8673   -2.0609 C   0  0  0  0  0
    5.6219   -4.4959   -1.6994 C   0  0  0  0  0
    3.0430    1.3938   -0.1012 C   0  0  0  0  0
    4.5580    1.4852    0.0464 C   0  0  0  0  0
    5.0300    2.8953    0.3895 C   0  0  0  0  0
    6.5515    2.9381    0.4661 C   0  0  0  0  0
    7.0396    4.3078    0.8547 C   0  0  0  0  0
    7.1493    5.2424    0.0742 O   0  0  0  0  0
    7.3275    4.3432    2.1840 O   0  0  0  0  0
    7.8798    5.5751    2.6726 C   0  0  0  0  0
    9.3974    5.5469    2.5166 C   0  0  0  0  0
   10.0479    6.8068    3.0793 C   0  0  0  0  0
   11.5602    6.7648    2.9279 C   0  0  0  0  0
    2.7194   -1.8114   -3.0836 H   0  0  0  0  0
    2.0608   -2.2429   -1.5047 H   0  0  0  0  0
    4.4265   -2.2990   -0.5810 H   0  0  0  0  0
    5.0469   -1.8441   -2.1513 H   0  0  0  0  0
    4.1227   -3.9625   -3.1407 H   0  0  0  0  0
    3.4804   -4.4180   -1.5603 H   0  0  0  0  0
    6.4470   -3.9801   -2.2016 H   0  0  0  0  0
    5.6428   -5.5470   -2.0037 H   0  0  0  0  0
    5.7968   -4.4512   -0.6193 H   0  0  0  0  0
    2.5370    1.7114    0.8173 H   0  0  0  0  0
    2.6721    2.0321   -0.9106 H   0  0  0  0  0
    5.0377    1.1572   -0.8845 H   0  0  0  0  0
    4.8912    0.7877    0.8259 H   0  0  0  0  0
    4.5970    3.2125    1.3462 H   0  0  0  0  0
    4.6766    3.6052   -0.3683 H   0  0  0  0  0
    7.0031    2.6829   -0.4999 H   0  0  0  0  0
    6.9295    2.2014    1.1853 H   0  0  0  0  0
    7.6109    5.6455    3.7321 H   0  0  0  0  0
    7.4327    6.4403    2.1691 H   0  0  0  0  0
    9.6576    5.4306    1.4573 H   0  0  0  0  0
    9.7951    4.6570    3.0207 H   0  0  0  0  0
    9.7953    6.9143    4.1405 H   0  0  0  0  0
    9.6579    7.6903    2.5608 H   0  0  0  0  0
   11.9839    5.9076    3.4606 H   0  0  0  0  0
   12.0077    7.6751    3.3384 H   0  0  0  0  0
   11.8469    6.6902    1.8741 H   0  0  0  0  0
  1  2  2  0  0  0
  2  8  1  0  0  0
  2  3  1  0  0  0
  3  4  1  0  0  0
  4  5  1  0  0  0
  4 19  1  0  0  0
  4 20  1  0  0  0
  5  6  1  0  0  0
  5 21  1  0  0  0
  5 22  1  0  0  0
  6  7  1  0  0  0
  6 23  1  0  0  0
  6 24  1  0  0  0
  7 25  1  0  0  0
  7 26  1  0  0  0
  7 27  1  0  0  0
  8  9  1  0  0  0
  8 28  1  0  0  0
  8 29  1  0  0  0
  9 10  1  0  0  0
  9 30  1  0  0  0
  9 31  1  0  0  0
 10 11  1  0  0  0
 10 32  1  0  0  0
 10 33  1  0  0  0
 11 12  1  0  0  0
 11 34  1  0  0  0
 11 35  1  0  0  0
 12 14  1  0  0  0
 12 13  2  0  0  0
 14 15  1  0  0  0
 15 16  1  0  0  0
 15 36  1  0  0  0
 15 37  1  0  0  0
 16 17  1  0  0  0
 16 38  1  0  0  0
 16 39  1  0  0  0
 17 18  1  0  0  0
 17 40  1  0  0  0
 17 41  1  0  0  0
 18 42  1  0  0  0
 18 43  1  0  0  0
 18 44  1  0  0  0
M  END