124
 OpenBabel11300911533D

 14 14  0  0  0  0  0  0  0  0999 V2000
    1.0118    0.0154    0.2774 N   0  0  0  0  0
    2.3817    0.0332   -0.0062 C   0  0  0  0  0
    3.0793    1.2447   -0.0297 C   0  0  0  0  0
    4.4674    1.2671   -0.1917 C   0  0  0  0  0
    5.1694    0.0686   -0.2865 C   0  0  0  0  0
    4.4975   -1.1473   -0.2001 C   0  0  0  0  0
    7.0467    0.0928   -0.5054 Br  0  0  0  0  0
    3.1088   -1.1601   -0.0381 C   0  0  0  0  0
    0.5211    0.8531   -0.0208 H   0  0  0  0  0
    0.5414   -0.8309   -0.0297 H   0  0  0  0  0
    2.5452    2.1852    0.0773 H   0  0  0  0  0
    4.9872    2.2205   -0.2283 H   0  0  0  0  0
    5.0408   -2.0878   -0.2433 H   0  0  0  0  0
    2.5983   -2.1147    0.0620 H   0  0  0  0  0
  1  2  1  0  0  0
  1  9  1  0  0  0
  1 10  1  0  0  0
  2  3  2  0  0  0
  2  8  1  0  0  0
  3  4  1  0  0  0
  3 11  1  0  0  0
  4  5  2  0  0  0
  4 12  1  0  0  0
  5  6  1  0  0  0
  5  7  1  0  0  0
  6  8  2  0  0  0
  6 13  1  0  0  0
  8 14  1  0  0  0
M  END