125
 OpenBabel11300911183D

 18 18  0  0  0  0  0  0  0  0999 V2000
   -1.4086   -0.0731   -0.0827 C   0  0  0  0  0
   -0.7659    1.1696   -0.0879 C   0  0  0  0  0
    0.6290    1.2448   -0.0882 C   0  0  0  0  0
    1.4043    0.0801   -0.0839 C   0  0  0  0  0
    0.7624   -1.1627   -0.0869 C   0  0  0  0  0
    2.9012    0.1756   -0.1002 C   0  0  0  0  0
   -0.6329   -1.2380   -0.0856 C   0  0  0  0  0
   -2.9053   -0.1689   -0.0972 C   0  0  0  0  0
   -1.3458    2.0893   -0.0932 H   0  0  0  0  0
    1.1084    2.2211   -0.0935 H   0  0  0  0  0
    1.3419   -2.0825   -0.0911 H   0  0  0  0  0
    3.3676   -0.8090    0.0067 H   0  0  0  0  0
    3.2500    0.8000    0.7289 H   0  0  0  0  0
    3.2393    0.6106   -1.0458 H   0  0  0  0  0
   -1.1124   -2.2143   -0.0890 H   0  0  0  0  0
   -3.3713    0.8158    0.0089 H   0  0  0  0  0
   -3.2529   -0.7922    0.7327 H   0  0  0  0  0
   -3.2440   -0.6051   -1.0420 H   0  0  0  0  0
  1  2  2  0  0  0
  1  7  1  0  0  0
  1  8  1  0  0  0
  2  3  1  0  0  0
  2  9  1  0  0  0
  3  4  2  0  0  0
  3 10  1  0  0  0
  4  5  1  0  0  0
  4  6  1  0  0  0
  5  7  2  0  0  0
  5 11  1  0  0  0
  6 12  1  0  0  0
  6 13  1  0  0  0
  6 14  1  0  0  0
  7 15  1  0  0  0
  8 16  1  0  0  0
  8 17  1  0  0  0
  8 18  1  0  0  0
M  END