126
 OpenBabel11300911183D

 16 16  0  0  0  0  0  0  0  0999 V2000
    0.9887   -0.0340    0.2188 O   0  0  0  0  0
    2.3387    0.0315    0.0398 C   0  0  0  0  0
    2.9995    1.2513   -0.0563 C   0  0  0  0  0
    4.3835    1.2701   -0.2439 C   0  0  0  0  0
    5.1063    0.0719   -0.3331 C   0  0  0  0  0
    4.4223   -1.1459   -0.2353 C   0  0  0  0  0
    6.5903    0.1074   -0.5498 C   0  0  0  0  0
    3.0396   -1.1655   -0.0471 C   0  0  0  0  0
    0.6381    0.8714    0.2438 H   0  0  0  0  0
    2.4603    2.1910    0.0105 H   0  0  0  0  0
    4.8985    2.2250   -0.3215 H   0  0  0  0  0
    4.9601   -2.0893   -0.3059 H   0  0  0  0  0
    7.0257   -0.8964   -0.5133 H   0  0  0  0  0
    7.0721    0.7073    0.2297 H   0  0  0  0  0
    6.8168    0.5404   -1.5290 H   0  0  0  0  0
    2.5109   -2.1109    0.0292 H   0  0  0  0  0
  1  2  1  0  0  0
  1  9  1  0  0  0
  2  3  2  0  0  0
  2  8  1  0  0  0
  3  4  1  0  0  0
  3 10  1  0  0  0
  4  5  2  0  0  0
  4 11  1  0  0  0
  5  6  1  0  0  0
  5  7  1  0  0  0
  6  8  2  0  0  0
  6 12  1  0  0  0
  7 13  1  0  0  0
  7 14  1  0  0  0
  7 15  1  0  0  0
  8 16  1  0  0  0
M  END