127
 OpenBabel11300911183D

 12 12  0  0  0  0  0  0  0  0999 V2000
   -1.3872   -0.0755   -0.0130 C   0  0  0  0  0
   -0.7613    1.1719   -0.0141 C   0  0  0  0  0
    0.6333    1.2483   -0.0139 C   0  0  0  0  0
    1.3905    0.0772   -0.0127 C   0  0  0  0  0
    0.7653   -1.1700   -0.0116 C   0  0  0  0  0
    3.1083    0.1709   -0.0125 Cl  0  0  0  0  0
   -0.6298   -1.2464   -0.0118 C   0  0  0  0  0
   -3.1047   -0.1689   -0.0132 Cl  0  0  0  0  0
   -1.3527    2.0851   -0.0150 H   0  0  0  0  0
    1.1206    2.2198   -0.0148 H   0  0  0  0  0
    1.3560   -2.0828   -0.0107 H   0  0  0  0  0
   -1.1169   -2.2176   -0.0110 H   0  0  0  0  0
  1  2  2  0  0  0
  1  7  1  0  0  0
  1  8  1  0  0  0
  2  3  1  0  0  0
  2  9  1  0  0  0
  3  4  2  0  0  0
  3 10  1  0  0  0
  4  5  1  0  0  0
  4  6  1  0  0  0
  5  7  2  0  0  0
  5 11  1  0  0  0
  7 12  1  0  0  0
M  END