129
 OpenBabel11300911533D

 13 13  0  0  0  0  0  0  0  0999 V2000
    1.0028   -0.0356    0.1562 O   0  0  0  0  0
    2.3567    0.0307    0.0204 C   0  0  0  0  0
    3.0192    1.2532   -0.0526 C   0  0  0  0  0
    4.4089    1.2722   -0.1926 C   0  0  0  0  0
    5.1171    0.0713   -0.2576 C   0  0  0  0  0
    4.4472   -1.1497   -0.1832 C   0  0  0  0  0
    6.8287    0.0984   -0.4309 Cl  0  0  0  0  0
    3.0590   -1.1687   -0.0433 C   0  0  0  0  0
    0.6451    0.8671    0.1827 H   0  0  0  0  0
    2.4771    2.1927   -0.0030 H   0  0  0  0  0
    4.9334    2.2222   -0.2506 H   0  0  0  0  0
    4.9973   -2.0860   -0.2334 H   0  0  0  0  0
    2.5275   -2.1140    0.0155 H   0  0  0  0  0
  1  2  1  0  0  0
  1  9  1  0  0  0
  2  3  2  0  0  0
  2  8  1  0  0  0
  3  4  1  0  0  0
  3 10  1  0  0  0
  4  5  2  0  0  0
  4 11  1  0  0  0
  5  6  1  0  0  0
  5  7  1  0  0  0
  6  8  2  0  0  0
  6 12  1  0  0  0
  8 13  1  0  0  0
M  END