130
 OpenBabel11300911183D

 17 17  0  0  0  0  0  0  0  0999 V2000
    0.9945    0.0153    0.3129 N   0  0  0  0  0
    2.3605    0.0346    0.0035 C   0  0  0  0  0
    3.0573    1.2437   -0.0342 C   0  0  0  0  0
    4.4418    1.2657   -0.2289 C   0  0  0  0  0
    5.1610    0.0715   -0.3419 C   0  0  0  0  0
    4.4738   -1.1415   -0.2382 C   0  0  0  0  0
    6.6426    0.1052   -0.5644 C   0  0  0  0  0
    3.0890   -1.1557   -0.0436 C   0  0  0  0  0
    0.5026    0.8523    0.0161 H   0  0  0  0  0
    0.5246   -0.8317    0.0089 H   0  0  0  0  0
    2.5265    2.1847    0.0841 H   0  0  0  0  0
    4.9561    2.2225   -0.2788 H   0  0  0  0  0
    5.0094   -2.0860   -0.2950 H   0  0  0  0  0
    7.0749   -0.9013   -0.5495 H   0  0  0  0  0
    7.1320    0.6891    0.2217 H   0  0  0  0  0
    6.8659    0.5538   -1.5381 H   0  0  0  0  0
    2.5828   -2.1108    0.0671 H   0  0  0  0  0
  1  2  1  0  0  0
  1  9  1  0  0  0
  1 10  1  0  0  0
  2  3  2  0  0  0
  2  8  1  0  0  0
  3  4  1  0  0  0
  3 11  1  0  0  0
  4  5  2  0  0  0
  4 12  1  0  0  0
  5  6  1  0  0  0
  5  7  1  0  0  0
  6  8  2  0  0  0
  6 13  1  0  0  0
  7 14  1  0  0  0
  7 15  1  0  0  0
  7 16  1  0  0  0
  8 17  1  0  0  0
M  END