131
 OpenBabel11300911533D

 21 20  0  0  0  0  0  0  0  0999 V2000
    4.2946   -4.9414   -2.4928 O   0  0  0  0  0
    4.1112   -5.2968   -1.3407 C   0  0  0  0  0
    4.7380   -4.8261   -0.2340 O   0  0  0  0  0
    5.7101   -3.7947   -0.4689 C   0  0  0  0  0
    7.0722   -4.3908   -0.8518 C   0  0  0  0  0
    8.0648   -3.2771   -1.1788 C   0  0  0  0  0
    7.6209   -5.2852    0.2617 C   0  0  0  0  0
    3.1547   -6.3390   -0.9116 C   0  0  0  0  0
    2.4315   -7.0176   -1.8112 C   0  0  0  0  0
    5.7949   -3.2226    0.4623 H   0  0  0  0  0
    5.3483   -3.0952   -1.2328 H   0  0  0  0  0
    6.9501   -5.0185   -1.7430 H   0  0  0  0  0
    8.2180   -2.6154   -0.3197 H   0  0  0  0  0
    7.7032   -2.6694   -2.0150 H   0  0  0  0  0
    9.0368   -3.6927   -1.4644 H   0  0  0  0  0
    7.7623   -4.7215    1.1900 H   0  0  0  0  0
    8.5883   -5.7107   -0.0257 H   0  0  0  0  0
    6.9424   -6.1187    0.4702 H   0  0  0  0  0
    3.0644   -6.5302    0.1506 H   0  0  0  0  0
    2.5243   -6.8255   -2.8771 H   0  0  0  0  0
    1.7297   -7.7827   -1.4972 H   0  0  0  0  0
  1  2  2  0  0  0
  2  8  1  0  0  0
  2  3  1  0  0  0
  3  4  1  0  0  0
  4  5  1  0  0  0
  4 10  1  0  0  0
  4 11  1  0  0  0
  5  7  1  0  0  0
  5  6  1  0  0  0
  5 12  1  0  0  0
  6 13  1  0  0  0
  6 14  1  0  0  0
  6 15  1  0  0  0
  7 16  1  0  0  0
  7 17  1  0  0  0
  7 18  1  0  0  0
  8  9  2  0  0  0
  8 19  1  0  0  0
  9 20  1  0  0  0
  9 21  1  0  0  0
M  END