132
 OpenBabel11300911183D

 11 10  0  0  0  0  0  0  0  0999 V2000
    1.0501   -0.0656    0.0294 Br  0  0  0  0  0
    2.9962   -0.0316    0.0340 C   0  0  0  0  0
    3.4857    1.4047   -0.0083 C   0  0  0  0  0
    5.0044    1.4690   -0.0059 C   0  0  0  0  0
    3.3209   -0.6014   -0.8412 H   0  0  0  0  0
    3.3159   -0.5467    0.9441 H   0  0  0  0  0
    3.1014    1.9627    0.8541 H   0  0  0  0  0
    3.1066    1.9091   -0.9059 H   0  0  0  0  0
    5.4149    1.0063    0.8973 H   0  0  0  0  0
    5.3398    2.5103   -0.0367 H   0  0  0  0  0
    5.4202    0.9522   -0.8767 H   0  0  0  0  0
  1  2  1  0  0  0
  2  3  1  0  0  0
  2  5  1  0  0  0
  2  6  1  0  0  0
  3  4  1  0  0  0
  3  7  1  0  0  0
  3  8  1  0  0  0
  4  9  1  0  0  0
  4 10  1  0  0  0
  4 11  1  0  0  0
M  END