134
 OpenBabel11300911183D

  9  8  0  0  0  0  0  0  0  0999 V2000
    0.9953   -0.0050    0.0001 O   0  0  0  0  0
    2.4203   -0.0052   -0.0001 C   0  0  0  0  0
    2.9298    1.4272   -0.0095 C   0  0  0  0  0
    4.7060    1.4659   -0.0100 Cl  0  0  0  0  0
    0.7106   -0.9359    0.0062 H   0  0  0  0  0
    2.7625   -0.5483   -0.8873 H   0  0  0  0  0
    2.7627   -0.5367    0.8940 H   0  0  0  0  0
    2.5712    1.9731    0.8687 H   0  0  0  0  0
    2.5710    1.9616   -0.8946 H   0  0  0  0  0
  1  2  1  0  0  0
  1  5  1  0  0  0
  2  3  1  0  0  0
  2  6  1  0  0  0
  2  7  1  0  0  0
  3  4  1  0  0  0
  3  8  1  0  0  0
  3  9  1  0  0  0
M  END