137
 OpenBabel11300911533D

  6  5  0  0  0  0  0  0  0  0999 V2000
    1.0000    0.0000    0.0000 N   0  0  0  0  0
    2.1510    0.0000    0.0000 C   0  0  0  0  0
    3.5950    0.0000    0.0000 C   0  0  0  0  0
    4.2088    1.6679   -0.0122 Cl  0  0  0  0  0
    3.9950   -0.5064   -0.8820 H   0  0  0  0  0
    3.9950   -0.4934    0.8893 H   0  0  0  0  0
  1  2  3  0  0  0
  2  3  1  0  0  0
  3  4  1  0  0  0
  3  5  1  0  0  0
  3  6  1  0  0  0
M  END