140
 OpenBabel11300911183D

 27 26  0  0  0  0  0  0  0  0999 V2000
    1.1557    0.0603   -0.2280 S   0  0  0  0  0
    0.6222    0.8174   -1.8366 C   0  0  0  0  0
    1.1029    2.2557   -2.0294 C   0  0  0  0  0
    1.0001   -0.0544   -3.0409 C   0  0  0  0  0
   -0.9205    0.8370   -1.7461 C   0  0  0  0  0
    2.9954    0.2339   -0.0573 C   0  0  0  0  0
    3.7832   -0.2337   -1.2798 C   0  0  0  0  0
    3.3982    1.6597    0.3403 C   0  0  0  0  0
    3.3517   -0.6962    1.1232 C   0  0  0  0  0
    0.9182    2.8706   -1.1415 H   0  0  0  0  0
    0.5744    2.7320   -2.8644 H   0  0  0  0  0
    2.1655    2.3010   -2.2793 H   0  0  0  0  0
    0.7456   -1.1079   -2.8804 H   0  0  0  0  0
    2.0598    0.0069   -3.2923 H   0  0  0  0  0
    0.4612    0.2751   -3.9381 H   0  0  0  0  0
   -1.3357   -0.1729   -1.6371 H   0  0  0  0  0
   -1.3601    1.2635   -2.6561 H   0  0  0  0  0
   -1.2740    1.4457   -0.9051 H   0  0  0  0  0
    3.4358   -1.2084   -1.6407 H   0  0  0  0  0
    4.8472   -0.3450   -1.0371 H   0  0  0  0  0
    3.7353    0.4895   -2.0972 H   0  0  0  0  0
    2.8189    2.0249    1.1956 H   0  0  0  0  0
    3.2869    2.3754   -0.4757 H   0  0  0  0  0
    4.4561    1.6923    0.6299 H   0  0  0  0  0
    2.8457   -0.3946    2.0493 H   0  0  0  0  0
    4.4287   -0.6726    1.3293 H   0  0  0  0  0
    3.0886   -1.7408    0.9154 H   0  0  0  0  0
  1  6  1  0  0  0
  1  2  1  0  0  0
  2  5  1  0  0  0
  2  4  1  0  0  0
  2  3  1  0  0  0
  3 10  1  0  0  0
  3 11  1  0  0  0
  3 12  1  0  0  0
  4 13  1  0  0  0
  4 14  1  0  0  0
  4 15  1  0  0  0
  5 16  1  0  0  0
  5 17  1  0  0  0
  5 18  1  0  0  0
  6  9  1  0  0  0
  6  8  1  0  0  0
  6  7  1  0  0  0
  7 19  1  0  0  0
  7 20  1  0  0  0
  7 21  1  0  0  0
  8 22  1  0  0  0
  8 23  1  0  0  0
  8 24  1  0  0  0
  9 25  1  0  0  0
  9 26  1  0  0  0
  9 27  1  0  0  0
M  END