147
 OpenBabel11300911183D

 19 19  0  0  0  0  0  0  0  0999 V2000
    1.0177    0.0166    0.0861 O   0  0  0  0  0
    2.4438    0.0200    0.0315 C   0  0  0  0  0
    2.9256    1.1735   -0.8493 C   0  0  0  0  0
    2.5540    0.9692   -2.3182 C   0  0  0  0  0
    3.0434   -0.3792   -2.8397 C   0  0  0  0  0
    2.5473   -1.5324   -1.9731 C   0  0  0  0  0
    2.9163   -1.3320   -0.5021 C   0  0  0  0  0
    0.7363    0.8789    0.4370 H   0  0  0  0  0
    2.8084    0.1552    1.0557 H   0  0  0  0  0
    4.0145    1.2657   -0.7630 H   0  0  0  0  0
    2.4874    2.1175   -0.5054 H   0  0  0  0  0
    2.9863    1.7759   -2.9217 H   0  0  0  0  0
    1.4649    1.0336   -2.4364 H   0  0  0  0  0
    4.1398   -0.3846   -2.8608 H   0  0  0  0  0
    2.7034   -0.5206   -3.8716 H   0  0  0  0  0
    2.9760   -2.4745   -2.3333 H   0  0  0  0  0
    1.4583   -1.6216   -2.0714 H   0  0  0  0  0
    2.4684   -2.1430    0.0845 H   0  0  0  0  0
    4.0046   -1.4067   -0.3910 H   0  0  0  0  0
  1  2  1  0  0  0
  1  8  1  0  0  0
  2  3  1  0  0  0
  2  7  1  0  0  0
  2  9  1  0  0  0
  3  4  1  0  0  0
  3 10  1  0  0  0
  3 11  1  0  0  0
  4  5  1  0  0  0
  4 12  1  0  0  0
  4 13  1  0  0  0
  5  6  1  0  0  0
  5 14  1  0  0  0
  5 15  1  0  0  0
  6  7  1  0  0  0
  6 16  1  0  0  0
  6 17  1  0  0  0
  7 18  1  0  0  0
  7 19  1  0  0  0
M  END