151
 OpenBabel11300911183D

 14 14  0  0  0  0  0  0  0  0999 V2000
   -0.0246   -0.3714    1.5365 N   0  0  0  0  0
    0.4685    0.8841    1.4854 C   0  0  0  0  0
    0.3055    1.7318    0.4027 C   0  0  0  0  0
   -0.4067    1.2666   -0.6990 C   0  0  0  0  0
   -0.9301   -0.0276   -0.6865 C   0  0  0  0  0
   -1.7128   -0.5747   -1.8379 C   0  0  0  0  0
   -0.7121   -0.7968    0.4525 C   0  0  0  0  0
    1.0161    1.2022    2.3679 H   0  0  0  0  0
    0.7226    2.7320    0.4168 H   0  0  0  0  0
   -0.5490    1.9149   -1.5594 H   0  0  0  0  0
   -1.7243    0.1232   -2.6809 H   0  0  0  0  0
   -2.7482   -0.7583   -1.5357 H   0  0  0  0  0
   -1.2681   -1.5116   -2.1872 H   0  0  0  0  0
   -1.0965   -1.8100    0.5287 H   0  0  0  0  0
  1  2  2  0  0  0
  1  7  1  0  0  0
  2  3  1  0  0  0
  2  6  1  0  0  0
  3  4  2  0  0  0
  3  8  1  0  0  0
  4  5  1  0  0  0
  4  9  1  0  0  0
  5  7  2  0  0  0
  5 10  1  0  0  0
  6 11  1  0  0  0
  6 12  1  0  0  0
  6 13  1  0  0  0
  7 14  1  0  0  0
M  END