152
 OpenBabel11300911533D

 17 16  0  0  0  0  0  0  0  0999 V2000
    5.0635   -3.1824   -2.4202 O   0  0  0  0  0
    4.3628   -3.4993   -1.4699 C   0  0  0  0  0
    4.5292   -3.0857   -0.1844 O   0  0  0  0  0
    5.6302   -2.1909    0.0434 C   0  0  0  0  0
    6.9085   -2.9853    0.2868 C   0  0  0  0  0
    8.0906   -2.0752    0.5677 C   0  0  0  0  0
    3.1773   -4.4121   -1.5627 C   0  0  0  0  0
    5.3797   -1.6013    0.9321 H   0  0  0  0  0
    5.7403   -1.4837   -0.7877 H   0  0  0  0  0
    7.1296   -3.6171   -0.5808 H   0  0  0  0  0
    6.7582   -3.6716    1.1283 H   0  0  0  0  0
    8.2780   -1.4039   -0.2768 H   0  0  0  0  0
    8.9949   -2.6685    0.7367 H   0  0  0  0  0
    7.9134   -1.4649    1.4593 H   0  0  0  0  0
    3.0797   -4.7757   -2.5891 H   0  0  0  0  0
    2.2688   -3.8664   -1.2961 H   0  0  0  0  0
    3.3183   -5.2719   -0.9028 H   0  0  0  0  0
  1  2  2  0  0  0
  2  7  1  0  0  0
  2  3  1  0  0  0
  3  4  1  0  0  0
  4  5  1  0  0  0
  4  8  1  0  0  0
  4  9  1  0  0  0
  5  6  1  0  0  0
  5 10  1  0  0  0
  5 11  1  0  0  0
  6 12  1  0  0  0
  6 13  1  0  0  0
  6 14  1  0  0  0
  7 15  1  0  0  0
  7 16  1  0  0  0
  7 17  1  0  0  0
M  END