154
 OpenBabel11300911183D

 14 13  0  0  0  0  0  0  0  0999 V2000
    1.0305   -0.0434    0.0903 Br  0  0  0  0  0
    2.9760   -0.0448    0.0404 C   0  0  0  0  0
    3.4918    1.3838    0.0144 C   0  0  0  0  0
    5.0191    1.4152   -0.0236 C   0  0  0  0  0
    5.5470    2.8409   -0.0539 C   0  0  0  0  0
    3.2656   -0.6016   -0.8560 H   0  0  0  0  0
    3.3115   -0.5859    0.9303 H   0  0  0  0  0
    3.1359    1.9269    0.8986 H   0  0  0  0  0
    3.0922    1.9104   -0.8611 H   0  0  0  0  0
    5.3813    0.8791   -0.9089 H   0  0  0  0  0
    5.4244    0.9006    0.8558 H   0  0  0  0  0
    5.1874    3.3735   -0.9400 H   0  0  0  0  0
    6.6412    2.8395   -0.0793 H   0  0  0  0  0
    5.2285    3.3962    0.8340 H   0  0  0  0  0
  1  2  1  0  0  0
  2  3  1  0  0  0
  2  6  1  0  0  0
  2  7  1  0  0  0
  3  4  1  0  0  0
  3  8  1  0  0  0
  3  9  1  0  0  0
  4  5  1  0  0  0
  4 10  1  0  0  0
  4 11  1  0  0  0
  5 12  1  0  0  0
  5 13  1  0  0  0
  5 14  1  0  0  0
M  END