155
 OpenBabel11300911533D

 16 15  0  0  0  0  0  0  0  0999 V2000
    0.9890   -0.0244    0.0100 N   0  0  0  0  0
    2.4478   -0.0291    0.0160 C   0  0  0  0  0
    2.9826    1.4014   -0.0112 C   0  0  0  0  0
    4.5113    1.4189   -0.0022 C   0  0  0  0  0
    5.0535    2.8396   -0.0239 C   0  0  0  0  0
    0.6481   -0.9843   -0.0224 H   0  0  0  0  0
    0.6511    0.4276   -0.8387 H   0  0  0  0  0
    2.8121   -0.5880   -0.8533 H   0  0  0  0  0
    2.7985   -0.5461    0.9160 H   0  0  0  0  0
    2.6060    1.9551    0.8572 H   0  0  0  0  0
    2.6181    1.9185   -0.9070 H   0  0  0  0  0
    4.8958    0.8742   -0.8735 H   0  0  0  0  0
    4.8856    0.9050    0.8919 H   0  0  0  0  0
    4.7222    3.3716   -0.9209 H   0  0  0  0  0
    6.1477    2.8278   -0.0201 H   0  0  0  0  0
    4.7165    3.4005    0.8533 H   0  0  0  0  0
  1  2  1  0  0  0
  1  6  1  0  0  0
  1  7  1  0  0  0
  2  3  1  0  0  0
  2  8  1  0  0  0
  2  9  1  0  0  0
  3  4  1  0  0  0
  3 10  1  0  0  0
  3 11  1  0  0  0
  4  5  1  0  0  0
  4 12  1  0  0  0
  4 13  1  0  0  0
  5 14  1  0  0  0
  5 15  1  0  0  0
  5 16  1  0  0  0
M  END