156
 OpenBabel11300911533D

 14 13  0  0  0  0  0  0  0  0999 V2000
    0.4265   -0.0860    0.0084 O   0  0  0  0  0
    0.4090    1.3473    0.0085 C   0  0  0  0  0
   -1.0453    1.8277   -0.0461 C   0  0  0  0  0
   -1.7821    1.4286    1.1581 N   0  0  0  0  0
    1.7545   -0.5881    0.0782 C   0  0  0  0  0
    0.9468    1.7133   -0.8734 H   0  0  0  0  0
    0.9049    1.7255    0.9105 H   0  0  0  0  0
   -1.5416    1.3864   -0.9172 H   0  0  0  0  0
   -1.0784    2.9169   -0.1422 H   0  0  0  0  0
   -1.6088    0.4297    1.3010 H   0  0  0  0  0
   -2.7815    1.5193    0.9835 H   0  0  0  0  0
    1.7092   -1.6802    0.0879 H   0  0  0  0  0
    2.2452   -0.2505    0.9959 H   0  0  0  0  0
    2.3294   -0.2696   -0.7964 H   0  0  0  0  0
  1  5  1  0  0  0
  1  2  1  0  0  0
  2  3  1  0  0  0
  2  6  1  0  0  0
  2  7  1  0  0  0
  3  4  1  0  0  0
  3  8  1  0  0  0
  3  9  1  0  0  0
  4 10  1  0  0  0
  4 11  1  0  0  0
  5 12  1  0  0  0
  5 13  1  0  0  0
  5 14  1  0  0  0
M  END