158
 OpenBabel11300911183D

 13 13  0  0  0  0  0  0  0  0999 V2000
   -0.7274   -0.9540    0.2107 O   0  0  0  0  0
    0.6947   -1.0083    0.0147 C   0  0  0  0  0
    1.2192    0.4037    0.1676 C   0  0  0  0  0
    0.0329    1.2332   -0.2522 C   0  0  0  0  0
   -1.1211    0.4225    0.2942 C   0  0  0  0  0
    0.8782   -1.3948   -0.9935 H   0  0  0  0  0
    1.1367   -1.6982    0.7383 H   0  0  0  0  0
    2.1179    0.5899   -0.4254 H   0  0  0  0  0
    1.4571    0.6013    1.2188 H   0  0  0  0  0
   -0.0228    1.2739   -1.3464 H   0  0  0  0  0
    0.0545    2.2571    0.1303 H   0  0  0  0  0
   -1.3034    0.6534    1.3490 H   0  0  0  0  0
   -2.0481    0.5773   -0.2634 H   0  0  0  0  0
  1  2  1  0  0  0
  1  5  1  0  0  0
  2  3  1  0  0  0
  2  6  1  0  0  0
  2  7  1  0  0  0
  3  4  1  0  0  0
  3  8  1  0  0  0
  3  9  1  0  0  0
  4  5  1  0  0  0
  4 10  1  0  0  0
  4 11  1  0  0  0
  5 12  1  0  0  0
  5 13  1  0  0  0
M  END