161
 OpenBabel11300911183D

 22 21  0  0  0  0  0  0  0  0999 V2000
    1.3202   -0.1597    0.7130 O   0  0  0  0  0
    2.5449   -0.2094    0.8169 C   0  0  0  0  0
    3.3476   -1.4631    0.5163 C   0  0  0  0  0
    2.4629   -2.6328    0.0908 C   0  0  0  0  0
    3.2910   -3.8854   -0.1983 C   0  0  0  0  0
    2.3991   -5.0512   -0.6257 C   0  0  0  0  0
    3.2134   -6.3023   -0.9132 C   0  0  0  0  0
    3.3359    0.9975    1.2510 C   0  0  0  0  0
    3.9084   -1.7284    1.4192 H   0  0  0  0  0
    4.0601   -1.2240   -0.2807 H   0  0  0  0  0
    1.8896   -2.3551   -0.8027 H   0  0  0  0  0
    1.7317   -2.8483    0.8800 H   0  0  0  0  0
    3.8586   -4.1658    0.6971 H   0  0  0  0  0
    4.0196   -3.6706   -0.9892 H   0  0  0  0  0
    1.8329   -4.7767   -1.5236 H   0  0  0  0  0
    1.6697   -5.2705    0.1630 H   0  0  0  0  0
    3.9316   -6.1262   -1.7201 H   0  0  0  0  0
    2.5542   -7.1210   -1.2179 H   0  0  0  0  0
    3.7657   -6.6236   -0.0246 H   0  0  0  0  0
    2.6550    1.8245    1.4712 H   0  0  0  0  0
    4.0122    1.2994    0.4478 H   0  0  0  0  0
    3.9030    0.7588    2.1538 H   0  0  0  0  0
  1  2  2  0  0  0
  2  8  1  0  0  0
  2  3  1  0  0  0
  3  4  1  0  0  0
  3  9  1  0  0  0
  3 10  1  0  0  0
  4  5  1  0  0  0
  4 11  1  0  0  0
  4 12  1  0  0  0
  5  6  1  0  0  0
  5 13  1  0  0  0
  5 14  1  0  0  0
  6  7  1  0  0  0
  6 15  1  0  0  0
  6 16  1  0  0  0
  7 17  1  0  0  0
  7 18  1  0  0  0
  7 19  1  0  0  0
  8 20  1  0  0  0
  8 21  1  0  0  0
  8 22  1  0  0  0
M  END