165
 OpenBabel11300911533D

 12 11  0  0  0  0  0  0  0  0999 V2000
    1.0028   -0.0003   -0.0808 O   0  0  0  0  0
    2.4200    0.0000    0.0000 C   0  0  0  0  0
    2.9020    1.3612    0.0000 C   0  0  0  0  0
    3.2993    2.4831    0.0000 C   0  0  0  0  0
    3.7813    3.8442    0.0000 C   0  0  0  0  0
    2.7284    4.7461   -0.3069 O   0  0  0  0  0
    0.7203   -0.9289   -0.0156 H   0  0  0  0  0
    2.8136   -0.5574   -0.8553 H   0  0  0  0  0
    2.7149   -0.5198    0.9167 H   0  0  0  0  0
    4.5742    3.9849   -0.7414 H   0  0  0  0  0
    4.1864    4.1207    0.9774 H   0  0  0  0  0
    2.2808    4.3930   -1.0939 H   0  0  0  0  0
  1  2  1  0  0  0
  1  7  1  0  0  0
  2  3  1  0  0  0
  2  8  1  0  0  0
  2  9  1  0  0  0
  3  4  3  0  0  0
  4  5  1  0  0  0
  5  6  1  0  0  0
  5 10  1  0  0  0
  5 11  1  0  0  0
  6 12  1  0  0  0
M  END