169
 OpenBabel11300911533D

 12 12  0  0  0  0  0  0  0  0999 V2000
    0.6611    1.1713   -0.2132 O   0  0  0  0  0
    1.3221   -0.0023    0.2228 C   0  0  0  0  0
    0.6602   -1.1708   -0.2259 O   0  0  0  0  0
   -0.6774   -1.1559    0.2381 C   0  0  0  0  0
   -1.3675    0.0010   -0.1982 O   0  0  0  0  0
   -0.6762    1.1524    0.2507 C   0  0  0  0  0
    1.4234   -0.0084    1.3157 H   0  0  0  0  0
    2.3307   -0.0006   -0.2011 H   0  0  0  0  0
   -0.7104   -1.2387    1.3320 H   0  0  0  0  0
   -1.1887   -2.0307   -0.1739 H   0  0  0  0  0
   -1.1869    2.0323   -0.1516 H   0  0  0  0  0
   -0.7091    1.2234    1.3454 H   0  0  0  0  0
  1  2  1  0  0  0
  1  6  1  0  0  0
  2  3  1  0  0  0
  2  7  1  0  0  0
  2  8  1  0  0  0
  3  4  1  0  0  0
  4  5  1  0  0  0
  4  9  1  0  0  0
  4 10  1  0  0  0
  5  6  1  0  0  0
  6 11  1  0  0  0
  6 12  1  0  0  0
M  END