171
 OpenBabel11300911183D

 25 24  0  0  0  0  0  0  0  0999 V2000
    3.1303   -2.0599   -2.3870 O   0  0  0  0  0
    3.1578   -1.2322   -1.4782 C   0  0  0  0  0
    2.4068   -1.4149   -0.1692 C   0  0  0  0  0
    1.7915   -2.8027    0.0042 C   0  0  0  0  0
    2.8426   -3.8756    0.3036 C   0  0  0  0  0
    2.1934   -5.2458    0.5107 C   0  0  0  0  0
    3.2443   -6.3238    0.7748 C   0  0  0  0  0
    2.6042   -7.6856    0.9917 C   0  0  0  0  0
    3.9360    0.0505   -1.6212 C   0  0  0  0  0
    1.6061   -0.6665   -0.1556 H   0  0  0  0  0
    3.0897   -1.1987    0.6597 H   0  0  0  0  0
    1.2209   -3.0792   -0.8904 H   0  0  0  0  0
    1.0791   -2.7634    0.8373 H   0  0  0  0  0
    3.4041   -3.5983    1.2041 H   0  0  0  0  0
    3.5642   -3.9363   -0.5191 H   0  0  0  0  0
    1.6081   -5.5140   -0.3774 H   0  0  0  0  0
    1.4951   -5.1971    1.3553 H   0  0  0  0  0
    3.8359   -6.0594    1.6589 H   0  0  0  0  0
    3.9365   -6.3833   -0.0731 H   0  0  0  0  0
    1.9350   -7.6709    1.8578 H   0  0  0  0  0
    3.3747   -8.4421    1.1705 H   0  0  0  0  0
    2.0250   -7.9914    0.1145 H   0  0  0  0  0
    4.3648    0.1117   -2.6251 H   0  0  0  0  0
    4.7448    0.0712   -0.8871 H   0  0  0  0  0
    3.2685    0.9026   -1.4721 H   0  0  0  0  0
  1  2  2  0  0  0
  2  9  1  0  0  0
  2  3  1  0  0  0
  3  4  1  0  0  0
  3 10  1  0  0  0
  3 11  1  0  0  0
  4  5  1  0  0  0
  4 12  1  0  0  0
  4 13  1  0  0  0
  5  6  1  0  0  0
  5 14  1  0  0  0
  5 15  1  0  0  0
  6  7  1  0  0  0
  6 16  1  0  0  0
  6 17  1  0  0  0
  7  8  1  0  0  0
  7 18  1  0  0  0
  7 19  1  0  0  0
  8 20  1  0  0  0
  8 21  1  0  0  0
  8 22  1  0  0  0
  9 23  1  0  0  0
  9 24  1  0  0  0
  9 25  1  0  0  0
M  END