172
 OpenBabel11300911183D

 21 20  0  0  0  0  0  0  0  0999 V2000
    2.9870   -1.4906    2.4141 O   0  0  0  0  0
    2.3836   -1.2238    1.3840 C   0  0  0  0  0
    2.9473   -1.0597    0.1561 O   0  0  0  0  0
    4.3786   -1.1548    0.1184 C   0  0  0  0  0
    4.8472   -2.6060    0.0739 C   0  0  0  0  0
    6.2714   -2.6332   -0.0187 O   0  0  0  0  0
    6.7745   -3.9667   -0.0401 C   0  0  0  0  0
    8.2889   -3.9046   -0.0508 C   0  0  0  0  0
    0.9010   -1.0292    1.2996 C   0  0  0  0  0
    4.8325   -0.6135    0.9581 H   0  0  0  0  0
    4.7148   -0.6342   -0.7854 H   0  0  0  0  0
    4.4066   -3.1122   -0.7933 H   0  0  0  0  0
    4.5219   -3.1421    0.9727 H   0  0  0  0  0
    6.4142   -4.4801   -0.9377 H   0  0  0  0  0
    6.4329   -4.5100    0.8474 H   0  0  0  0  0
    8.6474   -3.3415   -0.9194 H   0  0  0  0  0
    8.7213   -4.9090   -0.0775 H   0  0  0  0  0
    8.6588   -3.3850    0.8397 H   0  0  0  0  0
    0.4558   -1.2067    2.2828 H   0  0  0  0  0
    0.4719   -1.7424    0.5913 H   0  0  0  0  0
    0.6797   -0.0029    0.9958 H   0  0  0  0  0
  1  2  2  0  0  0
  2  9  1  0  0  0
  2  3  1  0  0  0
  3  4  1  0  0  0
  4  5  1  0  0  0
  4 10  1  0  0  0
  4 11  1  0  0  0
  5  6  1  0  0  0
  5 12  1  0  0  0
  5 13  1  0  0  0
  6  7  1  0  0  0
  7  8  1  0  0  0
  7 14  1  0  0  0
  7 15  1  0  0  0
  8 16  1  0  0  0
  8 17  1  0  0  0
  8 18  1  0  0  0
  9 19  1  0  0  0
  9 20  1  0  0  0
  9 21  1  0  0  0
M  END