173
 OpenBabel11300911183D

 20 19  0  0  0  0  0  0  0  0999 V2000
    1.8293   -1.2877   -0.7784 Br  0  0  0  0  0
    3.6263   -0.5568   -0.6191 C   0  0  0  0  0
    3.5522    0.9324   -0.3270 C   0  0  0  0  0
    4.9511    1.5352   -0.1906 C   0  0  0  0  0
    4.8852    3.0358    0.0981 C   0  0  0  0  0
    6.2834    3.6349    0.2484 C   0  0  0  0  0
    6.2227    5.1276    0.5306 C   0  0  0  0  0
    4.1331   -0.7637   -1.5659 H   0  0  0  0  0
    4.1179   -1.1086    0.1870 H   0  0  0  0  0
    2.9869    1.1053    0.5975 H   0  0  0  0  0
    3.0080    1.4451   -1.1301 H   0  0  0  0  0
    5.5168    1.3639   -1.1144 H   0  0  0  0  0
    5.4913    1.0287    0.6184 H   0  0  0  0  0
    4.3111    3.2090    1.0166 H   0  0  0  0  0
    4.3531    3.5435   -0.7158 H   0  0  0  0  0
    6.8620    3.4652   -0.6670 H   0  0  0  0  0
    6.8160    3.1359    1.0663 H   0  0  0  0  0
    5.7284    5.6615   -0.2873 H   0  0  0  0  0
    7.2330    5.5340    0.6399 H   0  0  0  0  0
    5.6731    5.3302    1.4554 H   0  0  0  0  0
  1  2  1  0  0  0
  2  3  1  0  0  0
  2  8  1  0  0  0
  2  9  1  0  0  0
  3  4  1  0  0  0
  3 10  1  0  0  0
  3 11  1  0  0  0
  4  5  1  0  0  0
  4 12  1  0  0  0
  4 13  1  0  0  0
  5  6  1  0  0  0
  5 14  1  0  0  0
  5 15  1  0  0  0
  6  7  1  0  0  0
  6 16  1  0  0  0
  6 17  1  0  0  0
  7 18  1  0  0  0
  7 19  1  0  0  0
  7 20  1  0  0  0
M  END