174
 OpenBabel11300911183D

 22 21  0  0  0  0  0  0  0  0999 V2000
    0.9113    0.0595   -0.0577 N   0  0  0  0  0
    2.3697    0.0320   -0.0357 C   0  0  0  0  0
    2.9277    1.4539   -0.0227 C   0  0  0  0  0
    4.4571    1.4452    0.0033 C   0  0  0  0  0
    5.0241    2.8661    0.0045 C   0  0  0  0  0
    6.5526    2.8536    0.0216 C   0  0  0  0  0
    7.1221    4.2628    0.0123 C   0  0  0  0  0
    0.5566   -0.8944   -0.1182 H   0  0  0  0  0
    0.5900    0.5373   -0.8986 H   0  0  0  0  0
    2.7348   -0.5109   -0.9146 H   0  0  0  0  0
    2.7024   -0.5122    0.8546 H   0  0  0  0  0
    2.5497    1.9932    0.8552 H   0  0  0  0  0
    2.5804    1.9981   -0.9099 H   0  0  0  0  0
    4.8358    0.9010   -0.8704 H   0  0  0  0  0
    4.8067    0.9101    0.8942 H   0  0  0  0  0
    4.6506    3.4106    0.8811 H   0  0  0  0  0
    4.6705    3.4041   -0.8841 H   0  0  0  0  0
    6.9297    2.3083   -0.8509 H   0  0  0  0  0
    6.9101    2.3269    0.9134 H   0  0  0  0  0
    6.8107    4.8064   -0.8858 H   0  0  0  0  0
    8.2162    4.2294    0.0262 H   0  0  0  0  0
    6.7884    4.8275    0.8890 H   0  0  0  0  0
  1  2  1  0  0  0
  1  8  1  0  0  0
  1  9  1  0  0  0
  2  3  1  0  0  0
  2 10  1  0  0  0
  2 11  1  0  0  0
  3  4  1  0  0  0
  3 12  1  0  0  0
  3 13  1  0  0  0
  4  5  1  0  0  0
  4 14  1  0  0  0
  4 15  1  0  0  0
  5  6  1  0  0  0
  5 16  1  0  0  0
  5 17  1  0  0  0
  6  7  1  0  0  0
  6 18  1  0  0  0
  6 19  1  0  0  0
  7 20  1  0  0  0
  7 21  1  0  0  0
  7 22  1  0  0  0
M  END