176
 OpenBabel11300911533D

 21 20  0  0  0  0  0  0  0  0999 V2000
    0.7711    0.1604   -0.8987 S   0  0  0  0  0
   -0.0547   -1.2428   -0.0698 C   0  0  0  0  0
    0.1002   -1.3053    1.4500 C   0  0  0  0  0
   -0.4540   -0.0911    2.1804 C   0  0  0  0  0
    2.5087   -0.0979   -0.4084 C   0  0  0  0  0
    3.1005   -1.3882   -0.9692 C   0  0  0  0  0
    4.5614   -1.5370   -0.5701 C   0  0  0  0  0
    0.2970   -2.1761   -0.5207 H   0  0  0  0  0
   -1.1203   -1.1690   -0.3163 H   0  0  0  0  0
    1.1481   -1.4572    1.7286 H   0  0  0  0  0
   -0.4370   -2.1926    1.8074 H   0  0  0  0  0
    0.1168    0.8144    1.9543 H   0  0  0  0  0
   -0.4042   -0.2505    3.2625 H   0  0  0  0  0
   -1.5016    0.0830    1.9136 H   0  0  0  0  0
    2.5937   -0.0595    0.6820 H   0  0  0  0  0
    3.0746    0.7580   -0.7951 H   0  0  0  0  0
    3.0292   -1.3935   -2.0629 H   0  0  0  0  0
    2.5561   -2.2625   -0.5983 H   0  0  0  0  0
    5.1590   -0.6964   -0.9392 H   0  0  0  0  0
    4.9768   -2.4589   -0.9892 H   0  0  0  0  0
    4.6667   -1.5818    0.5186 H   0  0  0  0  0
  1  5  1  0  0  0
  1  2  1  0  0  0
  2  3  1  0  0  0
  2  8  1  0  0  0
  2  9  1  0  0  0
  3  4  1  0  0  0
  3 10  1  0  0  0
  3 11  1  0  0  0
  4 12  1  0  0  0
  4 13  1  0  0  0
  4 14  1  0  0  0
  5  6  1  0  0  0
  5 15  1  0  0  0
  5 16  1  0  0  0
  6  7  1  0  0  0
  6 17  1  0  0  0
  6 18  1  0  0  0
  7 19  1  0  0  0
  7 20  1  0  0  0
  7 21  1  0  0  0
M  END