177
 OpenBabel11300911183D

 25 24  0  0  0  0  0  0  0  0999 V2000
    0.9716   -0.0298   -0.0084 N   0  0  0  0  0
    2.4290   -0.0349    0.0188 C   0  0  0  0  0
    2.9642    1.3955   -0.0159 C   0  0  0  0  0
    4.4946    1.4160    0.0116 C   0  0  0  0  0
    5.0316    2.8477   -0.0095 C   0  0  0  0  0
    6.5605    2.8699   -0.0004 C   0  0  0  0  0
    7.0945    4.3023   -0.0047 C   0  0  0  0  0
    8.6157    4.3312   -0.0078 C   0  0  0  0  0
    0.6305   -0.9902   -0.0358 H   0  0  0  0  0
    0.6455    0.4131   -0.8671 H   0  0  0  0  0
    2.8065   -0.6022   -0.8387 H   0  0  0  0  0
    2.7670   -0.5411    0.9292 H   0  0  0  0  0
    2.5758    1.9581    0.8424 H   0  0  0  0  0
    2.6104    1.9040   -0.9218 H   0  0  0  0  0
    4.8841    0.8632   -0.8524 H   0  0  0  0  0
    4.8529    0.9022    0.9124 H   0  0  0  0  0
    4.6507    3.3945    0.8615 H   0  0  0  0  0
    4.6629    3.3654   -0.9030 H   0  0  0  0  0
    6.9412    2.3329   -0.8779 H   0  0  0  0  0
    6.9319    2.3427    0.8871 H   0  0  0  0  0
    6.7268    4.8391    0.8775 H   0  0  0  0  0
    6.7233    4.8360   -0.8876 H   0  0  0  0  0
    9.0186    3.8294    0.8767 H   0  0  0  0  0
    8.9740    5.3646   -0.0060 H   0  0  0  0  0
    9.0143    3.8344   -0.8975 H   0  0  0  0  0
  1  2  1  0  0  0
  1  9  1  0  0  0
  1 10  1  0  0  0
  2  3  1  0  0  0
  2 11  1  0  0  0
  2 12  1  0  0  0
  3  4  1  0  0  0
  3 13  1  0  0  0
  3 14  1  0  0  0
  4  5  1  0  0  0
  4 15  1  0  0  0
  4 16  1  0  0  0
  5  6  1  0  0  0
  5 17  1  0  0  0
  5 18  1  0  0  0
  6  7  1  0  0  0
  6 19  1  0  0  0
  6 20  1  0  0  0
  7  8  1  0  0  0
  7 21  1  0  0  0
  7 22  1  0  0  0
  8 23  1  0  0  0
  8 24  1  0  0  0
  8 25  1  0  0  0
M  END