178
 OpenBabel11300911533D

 16 15  0  0  0  0  0  0  0  0999 V2000
    2.6893   -0.9603    1.0658 C   0  0  0  0  0
    2.9734   -1.6378    1.9636 N   0  0  0  0  0
    2.3472   -0.0904   -0.0673 C   0  0  0  0  0
    2.9298    1.3170    0.0898 C   0  0  0  0  0
    4.4638    1.3432    0.0025 C   0  0  0  0  0
    5.0439    2.7538    0.1389 C   0  0  0  0  0
    4.7351    3.5911   -1.0273 C   0  0  0  0  0
    4.4785    4.2428   -1.9530 N   0  0  0  0  0
    1.2560   -0.0143   -0.1398 H   0  0  0  0  0
    2.6974   -0.5385   -1.0041 H   0  0  0  0  0
    2.6099    1.7494    1.0463 H   0  0  0  0  0
    2.5084    1.9475   -0.7021 H   0  0  0  0  0
    4.7863    0.8955   -0.9460 H   0  0  0  0  0
    4.8836    0.7264    0.8061 H   0  0  0  0  0
    6.1327    2.6791    0.2436 H   0  0  0  0  0
    4.6683    3.2282    1.0526 H   0  0  0  0  0
  1  3  1  0  0  0
  1  2  3  0  0  0
  3  4  1  0  0  0
  3  9  1  0  0  0
  3 10  1  0  0  0
  4  5  1  0  0  0
  4 11  1  0  0  0
  4 12  1  0  0  0
  5  6  1  0  0  0
  5 13  1  0  0  0
  5 14  1  0  0  0
  6  7  1  0  0  0
  6 15  1  0  0  0
  6 16  1  0  0  0
  7  8  3  0  0  0
M  END