180
 OpenBabel11300911543D

 26 25  0  0  0  0  0  0  0  0999 V2000
    0.9717   -0.0706   -0.0040 Br  0  0  0  0  0
    2.9186   -0.0664    0.0409 C   0  0  0  0  0
    3.4303    1.3628   -0.0062 C   0  0  0  0  0
    4.9595    1.3979    0.0176 C   0  0  0  0  0
    5.4874    2.8332   -0.0120 C   0  0  0  0  0
    7.0163    2.8601   -0.0072 C   0  0  0  0  0
    7.5506    4.2936   -0.0194 C   0  0  0  0  0
    9.0792    4.3151   -0.0356 C   0  0  0  0  0
    9.6175    5.7366   -0.0365 C   0  0  0  0  0
    3.2518   -0.6499   -0.8207 H   0  0  0  0  0
    3.2102   -0.5754    0.9628 H   0  0  0  0  0
    3.0368    1.9312    0.8464 H   0  0  0  0  0
    3.0673    1.8631   -0.9132 H   0  0  0  0  0
    5.3514    0.8438   -0.8442 H   0  0  0  0  0
    5.3240    0.8917    0.9201 H   0  0  0  0  0
    5.1061    3.3824    0.8573 H   0  0  0  0  0
    5.1137    3.3445   -0.9074 H   0  0  0  0  0
    7.3951    2.3199   -0.8833 H   0  0  0  0  0
    7.3908    2.3377    0.8815 H   0  0  0  0  0
    7.1840    4.8295    0.8648 H   0  0  0  0  0
    7.1664    4.8226   -0.9002 H   0  0  0  0  0
    9.4485    3.7902   -0.9240 H   0  0  0  0  0
    9.4685    3.7836    0.8405 H   0  0  0  0  0
    9.2688    6.2880   -0.9154 H   0  0  0  0  0
   10.7121    5.7270   -0.0534 H   0  0  0  0  0
    9.2967    6.2781    0.8590 H   0  0  0  0  0
  1  2  1  0  0  0
  2  3  1  0  0  0
  2 10  1  0  0  0
  2 11  1  0  0  0
  3  4  1  0  0  0
  3 12  1  0  0  0
  3 13  1  0  0  0
  4  5  1  0  0  0
  4 14  1  0  0  0
  4 15  1  0  0  0
  5  6  1  0  0  0
  5 16  1  0  0  0
  5 17  1  0  0  0
  6  7  1  0  0  0
  6 18  1  0  0  0
  6 19  1  0  0  0
  7  8  1  0  0  0
  7 20  1  0  0  0
  7 21  1  0  0  0
  8  9  1  0  0  0
  8 22  1  0  0  0
  8 23  1  0  0  0
  9 24  1  0  0  0
  9 25  1  0  0  0
  9 26  1  0  0  0
M  END