181
 OpenBabel11300911543D

 28 27  0  0  0  0  0  0  0  0999 V2000
    0.9488   -0.0498   -0.0095 N   0  0  0  0  0
    2.4066   -0.0444    0.0206 C   0  0  0  0  0
    2.9337    1.3892   -0.0166 C   0  0  0  0  0
    4.4633    1.4147    0.0130 C   0  0  0  0  0
    4.9988    2.8478   -0.0104 C   0  0  0  0  0
    6.5291    2.8664   -0.0026 C   0  0  0  0  0
    7.0697    4.2971   -0.0130 C   0  0  0  0  0
    8.5986    4.3106   -0.0263 C   0  0  0  0  0
    9.1443    5.7298   -0.0276 C   0  0  0  0  0
    0.6152   -1.0126   -0.0327 H   0  0  0  0  0
    0.6217    0.3864   -0.8704 H   0  0  0  0  0
    2.7892   -0.6117   -0.8350 H   0  0  0  0  0
    2.7463   -0.5467    0.9327 H   0  0  0  0  0
    2.5410    1.9514    0.8400 H   0  0  0  0  0
    2.5783    1.8936   -0.9242 H   0  0  0  0  0
    4.8554    0.8620   -0.8490 H   0  0  0  0  0
    4.8220    0.9046    0.9149 H   0  0  0  0  0
    4.6192    3.3961    0.8603 H   0  0  0  0  0
    4.6300    3.3644   -0.9046 H   0  0  0  0  0
    6.9056    2.3250   -0.8783 H   0  0  0  0  0
    6.8981    2.3415    0.8861 H   0  0  0  0  0
    6.7048    4.8345    0.8705 H   0  0  0  0  0
    6.6905    4.8283   -0.8943 H   0  0  0  0  0
    8.9673    3.7830   -0.9137 H   0  0  0  0  0
    8.9838    3.7781    0.8511 H   0  0  0  0  0
    8.7999    6.2817   -0.9077 H   0  0  0  0  0
   10.2385    5.7145   -0.0428 H   0  0  0  0  0
    8.8245    6.2735    0.8667 H   0  0  0  0  0
  1  2  1  0  0  0
  1 10  1  0  0  0
  1 11  1  0  0  0
  2  3  1  0  0  0
  2 12  1  0  0  0
  2 13  1  0  0  0
  3  4  1  0  0  0
  3 14  1  0  0  0
  3 15  1  0  0  0
  4  5  1  0  0  0
  4 16  1  0  0  0
  4 17  1  0  0  0
  5  6  1  0  0  0
  5 18  1  0  0  0
  5 19  1  0  0  0
  6  7  1  0  0  0
  6 20  1  0  0  0
  6 21  1  0  0  0
  7  8  1  0  0  0
  7 22  1  0  0  0
  7 23  1  0  0  0
  8  9  1  0  0  0
  8 24  1  0  0  0
  8 25  1  0  0  0
  9 26  1  0  0  0
  9 27  1  0  0  0
  9 28  1  0  0  0
M  END