183
 OpenBabel11300911543D

 34 33  0  0  0  0  0  0  0  0999 V2000
    1.9083    0.6071    1.1147 O   0  0  0  0  0
    2.2115    0.0827    0.0432 C   0  0  0  0  0
    2.9765   -1.2219   -0.0062 C   0  0  0  0  0
    2.0171   -2.4059    0.0083 C   0  0  0  0  0
    2.7707   -3.7361   -0.0123 C   0  0  0  0  0
    1.8032   -4.9205    0.0071 C   0  0  0  0  0
    2.5504   -6.2553   -0.0013 C   0  0  0  0  0
    1.5755   -7.4341    0.0050 C   0  0  0  0  0
    2.3148   -8.7729    0.0124 C   0  0  0  0  0
    1.3347   -9.9461   -0.0002 C   0  0  0  0  0
    2.0611  -11.2815    0.0182 C   0  0  0  0  0
    1.7973    0.6878   -1.2721 C   0  0  0  0  0
    3.6502   -1.2538    0.8577 H   0  0  0  0  0
    3.6060   -1.2319   -0.9027 H   0  0  0  0  0
    1.3433   -2.3490   -0.8556 H   0  0  0  0  0
    1.3823   -2.3535    0.9020 H   0  0  0  0  0
    3.4396   -3.7932    0.8549 H   0  0  0  0  0
    3.3986   -3.7888   -0.9099 H   0  0  0  0  0
    1.1394   -4.8658   -0.8644 H   0  0  0  0  0
    1.1691   -4.8619    0.9002 H   0  0  0  0  0
    3.2063   -6.3148    0.8757 H   0  0  0  0  0
    3.1913   -6.3132   -0.8895 H   0  0  0  0  0
    0.9271   -7.3774   -0.8779 H   0  0  0  0  0
    0.9266   -7.3694    0.8869 H   0  0  0  0  0
    2.9526   -8.8356    0.9025 H   0  0  0  0  0
    2.9735   -8.8352   -0.8624 H   0  0  0  0  0
    0.7030   -9.8931   -0.8947 H   0  0  0  0  0
    0.6704   -9.8863    0.8698 H   0  0  0  0  0
    2.7142  -11.3852   -0.8541 H   0  0  0  0  0
    1.3402  -12.1049    0.0027 H   0  0  0  0  0
    2.6728  -11.3826    0.9203 H   0  0  0  0  0
    1.2657    1.6265   -1.0933 H   0  0  0  0  0
    1.1337    0.0013   -1.8030 H   0  0  0  0  0
    2.6848    0.8971   -1.8742 H   0  0  0  0  0
  1  2  2  0  0  0
  2 12  1  0  0  0
  2  3  1  0  0  0
  3  4  1  0  0  0
  3 13  1  0  0  0
  3 14  1  0  0  0
  4  5  1  0  0  0
  4 15  1  0  0  0
  4 16  1  0  0  0
  5  6  1  0  0  0
  5 17  1  0  0  0
  5 18  1  0  0  0
  6  7  1  0  0  0
  6 19  1  0  0  0
  6 20  1  0  0  0
  7  8  1  0  0  0
  7 21  1  0  0  0
  7 22  1  0  0  0
  8  9  1  0  0  0
  8 23  1  0  0  0
  8 24  1  0  0  0
  9 10  1  0  0  0
  9 25  1  0  0  0
  9 26  1  0  0  0
 10 11  1  0  0  0
 10 27  1  0  0  0
 10 28  1  0  0  0
 11 29  1  0  0  0
 11 30  1  0  0  0
 11 31  1  0  0  0
 12 32  1  0  0  0
 12 33  1  0  0  0
 12 34  1  0  0  0
M  END