186
 OpenBabel11300911543D

 30 30  0  0  0  0  0  0  0  0999 V2000
    2.2242    1.5643    4.6655 C   0  0  0  0  0
    3.2651    2.1340    3.8577 N   0  0  0  0  0
    3.0006    2.8297    2.7108 C   0  0  0  0  0
    1.8805    3.0077    2.2524 O   0  0  0  0  0
    4.1918    3.3091    2.1864 O   0  0  0  0  0
    4.1569    4.2274    1.1136 C   0  0  0  0  0
    3.2929    5.3268    1.1423 C   0  0  0  0  0
    3.3338    6.2613    0.1108 C   0  0  0  0  0
    4.2408    6.1003   -0.9346 C   0  0  0  0  0
    5.1152    5.0074   -0.9513 C   0  0  0  0  0
    5.1000    4.0728    0.0868 C   0  0  0  0  0
    5.8993    2.9626    0.1366 O   0  0  0  0  0
    7.2442    3.0783   -0.3457 C   0  0  0  0  0
    8.1518    3.5370    0.7915 C   0  0  0  0  0
    7.6620    1.6949   -0.8363 C   0  0  0  0  0
    2.6535    1.2501    5.6198 H   0  0  0  0  0
    1.7987    0.7028    4.1446 H   0  0  0  0  0
    1.4406    2.3080    4.8374 H   0  0  0  0  0
    4.2376    2.0279    4.1091 H   0  0  0  0  0
    2.5850    5.4599    1.9554 H   0  0  0  0  0
    2.6533    7.1086    0.1193 H   0  0  0  0  0
    4.2620    6.8226   -1.7472 H   0  0  0  0  0
    5.7744    4.9029   -1.8057 H   0  0  0  0  0
    7.3427    3.7657   -1.1899 H   0  0  0  0  0
    8.0729    2.8649    1.6529 H   0  0  0  0  0
    7.8610    4.5334    1.1399 H   0  0  0  0  0
    9.1978    3.5759    0.4715 H   0  0  0  0  0
    7.5881    0.9519   -0.0349 H   0  0  0  0  0
    8.6881    1.7011   -1.2166 H   0  0  0  0  0
    6.9959    1.3607   -1.6393 H   0  0  0  0  0
  1  2  1  0  0  0
  1 16  1  0  0  0
  1 17  1  0  0  0
  1 18  1  0  0  0
  2  3  1  0  0  0
  2 19  1  0  0  0
  3  5  1  0  0  0
  3  4  2  0  0  0
  5  6  1  0  0  0
  6  7  2  0  0  0
  6 11  1  0  0  0
  7  8  1  0  0  0
  7 20  1  0  0  0
  8  9  2  0  0  0
  8 21  1  0  0  0
  9 10  1  0  0  0
  9 22  1  0  0  0
 10 11  2  0  0  0
 10 23  1  0  0  0
 11 12  1  0  0  0
 12 13  1  0  0  0
 13 15  1  0  0  0
 13 14  1  0  0  0
 13 24  1  0  0  0
 14 25  1  0  0  0
 14 26  1  0  0  0
 14 27  1  0  0  0
 15 28  1  0  0  0
 15 29  1  0  0  0
 15 30  1  0  0  0
M  END