187
 OpenBabel11300911193D

  9  8  0  0  0  0  0  0  0  0999 V2000
    0.9498   -0.1065   -0.0011 O   0  0  0  0  0
    2.3747    0.0273    0.0084 C   0  0  0  0  0
    2.8630    1.4953    0.0285 C   0  0  0  0  0
    2.2982    2.3737   -1.4247 Cl  0  0  0  0  0
    2.2819    2.3391    1.4957 Cl  0  0  0  0  0
    4.6588    1.5141    0.0388 Cl  0  0  0  0  0
    0.7441   -1.0575   -0.0135 H   0  0  0  0  0
    2.7568   -0.4879   -0.8808 H   0  0  0  0  0
    2.7470   -0.5088    0.8893 H   0  0  0  0  0
  1  2  1  0  0  0
  1  7  1  0  0  0
  2  3  1  0  0  0
  2  8  1  0  0  0
  2  9  1  0  0  0
  3  6  1  0  0  0
  3  5  1  0  0  0
  3  4  1  0  0  0
M  END