188
 OpenBabel11300911543D

 29 30  0  0  0  0  0  0  0  0999 V2000
    2.8026    0.2179   -0.5329 O   0  0  0  0  0
    4.1061    0.5258    0.0507 C   0  0  0  0  0
    4.4232   -0.6164    1.0554 C   0  0  0  0  0
    5.7490   -0.9174    1.4270 C   0  0  0  0  0
    6.0269   -1.9329    2.3484 C   0  0  0  0  0
    4.9857   -2.6584    2.9189 C   0  0  0  0  0
    5.3295   -3.8991    4.0593 Cl  0  0  0  0  0
    3.6682   -2.3834    2.5703 C   0  0  0  0  0
    3.3906   -1.3753    1.6427 C   0  0  0  0  0
    5.0590    0.4451   -1.1772 C   0  0  0  0  0
    5.0600   -0.7431   -1.9478 C   0  0  0  0  0
    5.8854   -0.8973   -3.0657 C   0  0  0  0  0
    6.7268    0.1395   -3.4459 C   0  0  0  0  0
    7.7415   -0.0355   -4.8227 Cl  0  0  0  0  0
    6.7488    1.3205   -2.7134 C   0  0  0  0  0
    5.9264    1.4712   -1.5881 C   0  0  0  0  0
    3.9700    1.9267    0.8222 C   0  0  0  0  0
    2.6965    1.8839    2.1241 Cl  0  0  0  0  0
    5.4888    2.4848    1.6209 Cl  0  0  0  0  0
    3.4129    3.2412   -0.3098 Cl  0  0  0  0  0
    2.7014    0.7793   -1.3236 H   0  0  0  0  0
    6.5897   -0.3715    1.0008 H   0  0  0  0  0
    7.0581   -2.1498    2.6162 H   0  0  0  0  0
    2.8509   -2.9451    3.0149 H   0  0  0  0  0
    2.3485   -1.1830    1.3886 H   0  0  0  0  0
    4.4075   -1.5723   -1.6712 H   0  0  0  0  0
    5.8636   -1.8265   -3.6296 H   0  0  0  0  0
    7.4055    2.1351   -3.0099 H   0  0  0  0  0
    6.0033    2.4208   -1.0677 H   0  0  0  0  0
  1  2  1  0  0  0
  1 21  1  0  0  0
  2 17  1  0  0  0
  2 10  1  0  0  0
  2  3  1  0  0  0
  3  4  2  0  0  0
  3  9  1  0  0  0
  4  5  1  0  0  0
  4 22  1  0  0  0
  5  6  2  0  0  0
  5 23  1  0  0  0
  6  8  1  0  0  0
  6  7  1  0  0  0
  8  9  2  0  0  0
  8 24  1  0  0  0
  9 25  1  0  0  0
 10 11  2  0  0  0
 10 16  1  0  0  0
 11 12  1  0  0  0
 11 26  1  0  0  0
 12 13  2  0  0  0
 12 27  1  0  0  0
 13 15  1  0  0  0
 13 14  1  0  0  0
 15 16  2  0  0  0
 15 28  1  0  0  0
 16 29  1  0  0  0
 17 20  1  0  0  0
 17 19  1  0  0  0
 17 18  1  0  0  0
M  END