194
 OpenBabel11300911193D

 24 25  0  0  0  0  0  0  0  0999 V2000
    2.8892   -0.0831    0.0507 O   0  0  0  0  0
    4.0802    0.1243   -0.1726 C   0  0  0  0  0
    4.9716   -1.0347   -0.4368 C   0  0  0  0  0
    6.3103   -1.0534   -0.0280 C   0  0  0  0  0
    7.1028   -2.1748   -0.2861 C   0  0  0  0  0
    6.5574   -3.2838   -0.9339 C   0  0  0  0  0
    5.2174   -3.2796   -1.3190 C   0  0  0  0  0
    4.4241   -2.1595   -1.0670 C   0  0  0  0  0
    4.5777    1.5254   -0.1709 C   0  0  0  0  0
    3.9313    2.4560    0.6533 C   0  0  0  0  0
    4.3483    3.7877    0.6728 C   0  0  0  0  0
    5.4066    4.1971   -0.1365 C   0  0  0  0  0
    6.0412    3.2800   -0.9749 C   0  0  0  0  0
    5.6231    1.9469   -1.0012 C   0  0  0  0  0
    6.7469   -0.2152    0.5078 H   0  0  0  0  0
    8.1434   -2.1901    0.0284 H   0  0  0  0  0
    7.1744   -4.1589   -1.1271 H   0  0  0  0  0
    4.7871   -4.1500   -1.8085 H   0  0  0  0  0
    3.3757   -2.1659   -1.3589 H   0  0  0  0  0
    3.0965    2.1441    1.2787 H   0  0  0  0  0
    3.8416    4.5045    1.3137 H   0  0  0  0  0
    5.7284    5.2357   -0.1237 H   0  0  0  0  0
    6.8550    3.6078   -1.6178 H   0  0  0  0  0
    6.1094    1.2592   -1.6878 H   0  0  0  0  0
  1  2  2  0  0  0
  2  9  1  0  0  0
  2  3  1  0  0  0
  3  4  2  0  0  0
  3  8  1  0  0  0
  4  5  1  0  0  0
  4 15  1  0  0  0
  5  6  2  0  0  0
  5 16  1  0  0  0
  6  7  1  0  0  0
  6 17  1  0  0  0
  7  8  2  0  0  0
  7 18  1  0  0  0
  8 19  1  0  0  0
  9 10  2  0  0  0
  9 14  1  0  0  0
 10 11  1  0  0  0
 10 20  1  0  0  0
 11 12  2  0  0  0
 11 21  1  0  0  0
 12 13  1  0  0  0
 12 22  1  0  0  0
 13 14  2  0  0  0
 13 23  1  0  0  0
 14 24  1  0  0  0
M  END