196
 OpenBabel11300911193D

 28 28  0  0  0  0  0  0  0  0999 V2000
    0.6464   -0.4882   -1.7069 O   0  0  0  0  0
    1.7931   -0.3733   -1.2904 C   0  0  0  0  0
    2.4734    0.9337   -1.2056 C   0  0  0  0  0
    1.8157    2.0985   -1.5831 C   0  0  0  0  0
    2.4766    3.3320   -1.4930 C   0  0  0  0  0
    3.8051    3.4469   -1.0425 C   0  0  0  0  0
    4.4570    4.6723   -0.9620 N   0  0  0  0  0
    3.7235    5.9436   -1.0169 C   0  0  0  0  0
    3.6332    6.4753   -2.4407 C   0  0  0  0  0
    5.9217    4.7651   -0.9014 C   0  0  0  0  0
    6.4157    4.8570    0.5351 C   0  0  0  0  0
    4.4320    2.2420   -0.6729 C   0  0  0  0  0
    3.7835    1.0001   -0.7442 C   0  0  0  0  0
    2.3719   -1.2505   -0.9597 H   0  0  0  0  0
    0.7929    2.0605   -1.9508 H   0  0  0  0  0
    1.9181    4.2067   -1.8136 H   0  0  0  0  0
    4.2382    6.6899   -0.3989 H   0  0  0  0  0
    2.7244    5.8515   -0.5752 H   0  0  0  0  0
    4.6258    6.7144   -2.8362 H   0  0  0  0  0
    3.0342    7.3915   -2.4628 H   0  0  0  0  0
    3.1733    5.7514   -3.1198 H   0  0  0  0  0
    6.2555    5.6626   -1.4378 H   0  0  0  0  0
    6.4020    3.9288   -1.4230 H   0  0  0  0  0
    5.9939    5.7295    1.0434 H   0  0  0  0  0
    7.5056    4.9505    0.5508 H   0  0  0  0  0
    6.1434    3.9717    1.1161 H   0  0  0  0  0
    5.4494    2.2416   -0.2928 H   0  0  0  0  0
    4.3166    0.1056   -0.4348 H   0  0  0  0  0
  1  2  2  0  0  0
  2  3  1  0  0  0
  2 14  1  0  0  0
  3  4  2  0  0  0
  3 13  1  0  0  0
  4  5  1  0  0  0
  4 15  1  0  0  0
  5  6  2  0  0  0
  5 16  1  0  0  0
  6 12  1  0  0  0
  6  7  1  0  0  0
  7 10  1  0  0  0
  7  8  1  0  0  0
  8  9  1  0  0  0
  8 17  1  0  0  0
  8 18  1  0  0  0
  9 19  1  0  0  0
  9 20  1  0  0  0
  9 21  1  0  0  0
 10 11  1  0  0  0
 10 22  1  0  0  0
 10 23  1  0  0  0
 11 24  1  0  0  0
 11 25  1  0  0  0
 11 26  1  0  0  0
 12 13  2  0  0  0
 12 27  1  0  0  0
 13 28  1  0  0  0
M  END