199
 OpenBabel11300911543D

 13 13  0  0  0  0  0  0  0  0999 V2000
    0.9842   -0.0712    0.1156 O   0  0  0  0  0
    2.3457   -0.0344    0.0005 C   0  0  0  0  0
    3.0524    1.1690   -0.0804 C   0  0  0  0  0
    4.4402    1.1588   -0.2057 C   0  0  0  0  0
    5.1104   -0.0633   -0.2489 C   0  0  0  0  0
    4.4074   -1.2671   -0.1638 C   0  0  0  0  0
    6.8236   -0.0890   -0.4116 Cl  0  0  0  0  0
    2.2160    2.6759   -0.0282 Cl  0  0  0  0  0
    3.0173   -1.2520   -0.0376 C   0  0  0  0  0
    0.6661    0.8504    0.1089 H   0  0  0  0  0
    4.9943    2.0905   -0.2704 H   0  0  0  0  0
    4.9346   -2.2173   -0.1969 H   0  0  0  0  0
    2.4617   -2.1834    0.0279 H   0  0  0  0  0
  1  2  1  0  0  0
  1 10  1  0  0  0
  2  3  2  0  0  0
  2  9  1  0  0  0
  3  4  1  0  0  0
  3  8  1  0  0  0
  4  5  2  0  0  0
  4 11  1  0  0  0
  5  6  1  0  0  0
  5  7  1  0  0  0
  6  9  2  0  0  0
  6 12  1  0  0  0
  9 13  1  0  0  0
M  END