200
 OpenBabel11300911543D

 19 19  0  0  0  0  0  0  0  0999 V2000
    0.9586   -0.0520    0.1291 N   0  0  0  0  0
    0.3793   -1.1470    0.1494 O   0  0  0  0  0
    0.3948    1.0459    0.2354 O   0  0  0  0  0
    2.4184   -0.0575   -0.0288 C   0  0  0  0  0
    3.1211    1.1544   -0.0231 C   0  0  0  0  0
    4.5128    1.1546   -0.1717 C   0  0  0  0  0
    5.2215   -0.0473   -0.3315 C   0  0  0  0  0
    4.4894   -1.2516   -0.3164 C   0  0  0  0  0
    5.1649   -2.5363   -0.4519 N   0  0  0  0  0
    4.7534   -3.2930   -1.3405 O   0  0  0  0  0
    6.0797   -2.7852    0.3431 O   0  0  0  0  0
    6.7172   -0.0000   -0.4903 C   0  0  0  0  0
    3.0945   -1.2727   -0.1761 C   0  0  0  0  0
    2.6044    2.1059    0.0950 H   0  0  0  0  0
    5.0413    2.1082   -0.1651 H   0  0  0  0  0
    7.0582    1.0139   -0.7245 H   0  0  0  0  0
    7.0409   -0.6416   -1.3154 H   0  0  0  0  0
    7.2069   -0.3136    0.4362 H   0  0  0  0  0
    2.5578   -2.2203   -0.1785 H   0  0  0  0  0
  1  4  1  0  0  0
  1  3  2  0  0  0
  1  2  2  0  0  0
  4  5  2  0  0  0
  4 13  1  0  0  0
  5  6  1  0  0  0
  5 14  1  0  0  0
  6  7  2  0  0  0
  6 15  1  0  0  0
  7  8  1  0  0  0
  7 12  1  0  0  0
  8 13  2  0  0  0
  8  9  1  0  0  0
  9 11  2  0  0  0
  9 10  2  0  0  0
 12 16  1  0  0  0
 12 17  1  0  0  0
 12 18  1  0  0  0
 13 19  1  0  0  0
M  END