201
 OpenBabel11300911543D

 22 22  0  0  0  0  0  0  0  0999 V2000
    0.6763    0.0733    0.8236 O   0  0  0  0  0
    1.8545    0.1473    0.4954 C   0  0  0  0  0
    2.5144    1.4412    0.2377 C   0  0  0  0  0
    1.8010    2.6323    0.3644 C   0  0  0  0  0
    2.4402    3.8474    0.1175 C   0  0  0  0  0
    3.7899    3.8708   -0.2571 C   0  0  0  0  0
    4.3726    5.0861   -0.4830 O   0  0  0  0  0
    4.5111    2.6767   -0.3888 C   0  0  0  0  0
    5.8226    2.5047   -0.7408 O   0  0  0  0  0
    6.5897    3.6523   -1.0951 C   0  0  0  0  0
    7.9768    3.1768   -1.4930 C   0  0  0  0  0
    3.8599    1.4615   -0.1352 C   0  0  0  0  0
    2.4750   -0.7573    0.3780 H   0  0  0  0  0
    0.7524    2.6175    0.6550 H   0  0  0  0  0
    1.8693    4.7660    0.2226 H   0  0  0  0  0
    3.7213    5.7899   -0.3292 H   0  0  0  0  0
    6.6857    4.3268   -0.2371 H   0  0  0  0  0
    6.1379    4.1664   -1.9511 H   0  0  0  0  0
    8.4529    2.6427   -0.6645 H   0  0  0  0  0
    8.6100    4.0206   -1.7799 H   0  0  0  0  0
    7.9182    2.4765   -2.3323 H   0  0  0  0  0
    4.4204    0.5349   -0.2352 H   0  0  0  0  0
  1  2  2  0  0  0
  2  3  1  0  0  0
  2 13  1  0  0  0
  3  4  2  0  0  0
  3 12  1  0  0  0
  4  5  1  0  0  0
  4 14  1  0  0  0
  5  6  2  0  0  0
  5 15  1  0  0  0
  6  8  1  0  0  0
  6  7  1  0  0  0
  7 16  1  0  0  0
  8 12  2  0  0  0
  8  9  1  0  0  0
  9 10  1  0  0  0
 10 11  1  0  0  0
 10 17  1  0  0  0
 10 18  1  0  0  0
 11 19  1  0  0  0
 11 20  1  0  0  0
 11 21  1  0  0  0
 12 22  1  0  0  0
M  END