204
 OpenBabel11300911543D

 14 14  0  0  0  0  0  0  0  0999 V2000
    0.9862    0.0006    0.4078 O   0  0  0  0  0
    2.1777   -0.0621    0.0709 N   0  0  0  0  0
    2.7823   -1.1122   -0.1837 O   0  0  0  0  0
    2.9233    1.1979   -0.0334 C   0  0  0  0  0
    2.2764    2.4120    0.2399 C   0  0  0  0  0
    2.9880    3.6087    0.1401 C   0  0  0  0  0
    4.3342    3.5903   -0.2298 C   0  0  0  0  0
    4.9686    2.3765   -0.4996 C   0  0  0  0  0
    6.6282    2.3683   -0.9542 Cl  0  0  0  0  0
    4.2738    1.1727   -0.4049 C   0  0  0  0  0
    1.2272    2.4416    0.5294 H   0  0  0  0  0
    2.4948    4.5557    0.3501 H   0  0  0  0  0
    4.8840    4.5259   -0.3060 H   0  0  0  0  0
    4.7834    0.2365   -0.6185 H   0  0  0  0  0
  1  2  2  0  0  0
  2  4  1  0  0  0
  2  3  2  0  0  0
  4  5  2  0  0  0
  4 10  1  0  0  0
  5  6  1  0  0  0
  5 11  1  0  0  0
  6  7  2  0  0  0
  6 12  1  0  0  0
  7  8  1  0  0  0
  7 13  1  0  0  0
  8 10  2  0  0  0
  8  9  1  0  0  0
 10 14  1  0  0  0
M  END