207
 OpenBabel11300911553D

 23 23  0  0  0  0  0  0  0  0999 V2000
    2.7923   -1.1588    0.1515 O   0  0  0  0  0
    2.1946   -0.0908    0.1859 C   0  0  0  0  0
    2.8810    1.2035    0.0047 C   0  0  0  0  0
    2.1395    2.3852    0.0540 C   0  0  0  0  0
    2.7837    3.6134   -0.1177 C   0  0  0  0  0
    4.1696    3.6736   -0.3377 C   0  0  0  0  0
    4.8979    2.4743   -0.3850 C   0  0  0  0  0
    4.8895    4.9986   -0.5298 C   0  0  0  0  0
    4.4162    5.7121   -1.7985 C   0  0  0  0  0
    4.7423    5.9060    0.6944 C   0  0  0  0  0
    4.2583    1.2445   -0.2146 C   0  0  0  0  0
    1.1055   -0.0501    0.3557 H   0  0  0  0  0
    1.0661    2.3670    0.2233 H   0  0  0  0  0
    2.1927    4.5267   -0.0792 H   0  0  0  0  0
    5.9726    2.4872   -0.5560 H   0  0  0  0  0
    5.9620    4.7976   -0.6526 H   0  0  0  0  0
    3.3606    5.9978   -1.7378 H   0  0  0  0  0
    4.5380    5.0695   -2.6773 H   0  0  0  0  0
    4.9987    6.6241   -1.9668 H   0  0  0  0  0
    3.7033    6.2122    0.8558 H   0  0  0  0  0
    5.3406    6.8152    0.5723 H   0  0  0  0  0
    5.0859    5.3977    1.6020 H   0  0  0  0  0
    4.8362    0.3235   -0.2539 H   0  0  0  0  0
  1  2  2  0  0  0
  2  3  1  0  0  0
  2 12  1  0  0  0
  3  4  2  0  0  0
  3 11  1  0  0  0
  4  5  1  0  0  0
  4 13  1  0  0  0
  5  6  2  0  0  0
  5 14  1  0  0  0
  6  7  1  0  0  0
  6  8  1  0  0  0
  7 11  2  0  0  0
  7 15  1  0  0  0
  8 10  1  0  0  0
  8  9  1  0  0  0
  8 16  1  0  0  0
  9 17  1  0  0  0
  9 18  1  0  0  0
  9 19  1  0  0  0
 10 20  1  0  0  0
 10 21  1  0  0  0
 10 22  1  0  0  0
 11 23  1  0  0  0
M  END