209
 OpenBabel11300911193D

 20 20  0  0  0  0  0  0  0  0999 V2000
    0.5807   -0.4390   -0.1452 O   0  0  0  0  0
   -0.0099   -1.6692   -0.2346 C   0  0  0  0  0
    0.7640   -2.7254    0.2543 C   0  0  0  0  0
    0.2837   -4.0354    0.2197 C   0  0  0  0  0
   -0.9779   -4.2980   -0.3082 C   0  0  0  0  0
   -1.7551   -3.2503   -0.7989 C   0  0  0  0  0
   -1.2737   -1.9375   -0.7625 C   0  0  0  0  0
   -0.1953    0.6866   -0.5703 C   0  0  0  0  0
    0.6627    1.9344   -0.3783 C   0  0  0  0  0
    1.7989    1.8885   -1.2398 O   0  0  0  0  0
    1.7497   -2.5259    0.6670 H   0  0  0  0  0
    0.8949   -4.8481    0.6035 H   0  0  0  0  0
   -1.3544   -5.3167   -0.3386 H   0  0  0  0  0
   -2.7390   -3.4546   -1.2134 H   0  0  0  0  0
   -1.9093   -1.1523   -1.1580 H   0  0  0  0  0
   -1.1025    0.7718    0.0386 H   0  0  0  0  0
   -0.4454    0.5813   -1.6325 H   0  0  0  0  0
    1.0288    2.0055    0.6506 H   0  0  0  0  0
    0.0924    2.8363   -0.6174 H   0  0  0  0  0
    2.2046    1.0113   -1.1028 H   0  0  0  0  0
  1  8  1  0  0  0
  1  2  1  0  0  0
  2  3  2  0  0  0
  2  7  1  0  0  0
  3  4  1  0  0  0
  3 11  1  0  0  0
  4  5  2  0  0  0
  4 12  1  0  0  0
  5  6  1  0  0  0
  5 13  1  0  0  0
  6  7  2  0  0  0
  6 14  1  0  0  0
  7 15  1  0  0  0
  8  9  1  0  0  0
  8 16  1  0  0  0
  8 17  1  0  0  0
  9 10  1  0  0  0
  9 18  1  0  0  0
  9 19  1  0  0  0
 10 20  1  0  0  0
M  END