211
 OpenBabel11300911553D

 19 18  0  0  0  0  0  0  0  0999 V2000
    1.4647   -0.6782    0.7383 O   0  0  0  0  0
    2.0870   -0.1675   -0.1871 C   0  0  0  0  0
    2.7522    1.1970   -0.1391 C   0  0  0  0  0
    2.4131    1.9835    1.1358 C   0  0  0  0  0
    0.9724    2.5040    1.1354 C   0  0  0  0  0
    0.6667    3.2904    2.4006 C   0  0  0  0  0
    4.2596    0.9839   -0.2592 C   0  0  0  0  0
    2.1997   -0.7074   -1.1434 H   0  0  0  0  0
    2.4037    1.7550   -1.0166 H   0  0  0  0  0
    3.0911    2.8425    1.2216 H   0  0  0  0  0
    2.5795    1.3594    2.0230 H   0  0  0  0  0
    0.2626    1.6742    1.0545 H   0  0  0  0  0
    0.8134    3.1513    0.2653 H   0  0  0  0  0
    0.7772    2.6610    3.2899 H   0  0  0  0  0
   -0.3618    3.6648    2.3754 H   0  0  0  0  0
    1.3380    4.1497    2.5018 H   0  0  0  0  0
    4.6473    0.4086    0.5888 H   0  0  0  0  0
    4.7888    1.9417   -0.2944 H   0  0  0  0  0
    4.5053    0.4303   -1.1720 H   0  0  0  0  0
  1  2  2  0  0  0
  2  3  1  0  0  0
  2  8  1  0  0  0
  3  7  1  0  0  0
  3  4  1  0  0  0
  3  9  1  0  0  0
  4  5  1  0  0  0
  4 10  1  0  0  0
  4 11  1  0  0  0
  5  6  1  0  0  0
  5 12  1  0  0  0
  5 13  1  0  0  0
  6 14  1  0  0  0
  6 15  1  0  0  0
  6 16  1  0  0  0
  7 17  1  0  0  0
  7 18  1  0  0  0
  7 19  1  0  0  0
M  END