213
 OpenBabel11300911553D

 26 25  0  0  0  0  0  0  0  0999 V2000
    3.1501   -0.9008   -0.8205 O   0  0  0  0  0
    2.6014   -0.0522   -0.1315 C   0  0  0  0  0
    1.4225   -0.2175    0.5297 O   0  0  0  0  0
    0.8153   -1.5120    0.3977 C   0  0  0  0  0
    1.4196   -2.4839    1.3946 C   0  0  0  0  0
    3.1170    1.3527    0.0770 C   0  0  0  0  0
    4.6436    1.3873    0.0677 C   0  0  0  0  0
    5.1731    2.8148    0.2040 C   0  0  0  0  0
    6.7015    2.8398    0.2001 C   0  0  0  0  0
    7.2370    4.2582    0.3089 C   0  0  0  0  0
    0.8994   -1.8844   -0.6297 H   0  0  0  0  0
   -0.2519   -1.3870    0.6077 H   0  0  0  0  0
    2.4897   -2.6232    1.2115 H   0  0  0  0  0
    0.9266   -3.4581    1.3336 H   0  0  0  0  0
    1.3193   -2.0995    2.4149 H   0  0  0  0  0
    2.7550    1.7293    1.0408 H   0  0  0  0  0
    2.7042    1.9837   -0.7177 H   0  0  0  0  0
    5.0227    0.9454   -0.8621 H   0  0  0  0  0
    5.0267    0.7672    0.8882 H   0  0  0  0  0
    4.7994    3.2609    1.1336 H   0  0  0  0  0
    4.7935    3.4261   -0.6238 H   0  0  0  0  0
    7.0793    2.3836   -0.7224 H   0  0  0  0  0
    7.0853    2.2446    1.0368 H   0  0  0  0  0
    6.8976    4.8710   -0.5323 H   0  0  0  0  0
    8.3315    4.2512    0.3037 H   0  0  0  0  0
    6.9044    4.7333    1.2372 H   0  0  0  0  0
  1  2  2  0  0  0
  2  6  1  0  0  0
  2  3  1  0  0  0
  3  4  1  0  0  0
  4  5  1  0  0  0
  4 11  1  0  0  0
  4 12  1  0  0  0
  5 13  1  0  0  0
  5 14  1  0  0  0
  5 15  1  0  0  0
  6  7  1  0  0  0
  6 16  1  0  0  0
  6 17  1  0  0  0
  7  8  1  0  0  0
  7 18  1  0  0  0
  7 19  1  0  0  0
  8  9  1  0  0  0
  8 20  1  0  0  0
  8 21  1  0  0  0
  9 10  1  0  0  0
  9 22  1  0  0  0
  9 23  1  0  0  0
 10 24  1  0  0  0
 10 25  1  0  0  0
 10 26  1  0  0  0
M  END