214
 OpenBabel11300911193D

 13 12  0  0  0  0  0  0  0  0999 V2000
    2.1078    0.1385    0.8838 O   0  0  0  0  0
    2.0771    1.2347    0.3346 C   0  0  0  0  0
    3.2936    2.0002   -0.1271 C   0  0  0  0  0
    4.5952    1.2610    0.1599 C   0  0  0  0  0
    5.8021    2.0528   -0.3159 C   0  0  0  0  0
    1.1127    1.7363    0.1437 H   0  0  0  0  0
    3.2842    2.9704    0.3813 H   0  0  0  0  0
    3.1826    2.1768   -1.2024 H   0  0  0  0  0
    4.5867    0.2820   -0.3343 H   0  0  0  0  0
    4.6881    1.0707    1.2358 H   0  0  0  0  0
    5.7576    2.2242   -1.3962 H   0  0  0  0  0
    6.7246    1.5063   -0.0965 H   0  0  0  0  0
    5.8558    3.0248    0.1847 H   0  0  0  0  0
  1  2  2  0  0  0
  2  3  1  0  0  0
  2  6  1  0  0  0
  3  4  1  0  0  0
  3  7  1  0  0  0
  3  8  1  0  0  0
  4  5  1  0  0  0
  4  9  1  0  0  0
  4 10  1  0  0  0
  5 11  1  0  0  0
  5 12  1  0  0  0
  5 13  1  0  0  0
M  END