215
 OpenBabel11300911553D

 20 19  0  0  0  0  0  0  0  0999 V2000
    6.5099   -1.9725    2.4877 O   0  0  0  0  0
    5.9212   -3.0407    2.4016 C   0  0  0  0  0
    5.3742   -3.5584    1.2680 O   0  0  0  0  0
    5.4963   -2.7458    0.0898 C   0  0  0  0  0
    6.8235   -3.0325   -0.6059 C   0  0  0  0  0
    6.9706   -2.2231   -1.8912 C   0  0  0  0  0
    8.2952   -2.5095   -2.5800 C   0  0  0  0  0
    5.7355   -3.9948    3.5416 C   0  0  0  0  0
    5.3830   -1.6820    0.3311 H   0  0  0  0  0
    4.6622   -3.0147   -0.5674 H   0  0  0  0  0
    6.8934   -4.1059   -0.8222 H   0  0  0  0  0
    7.6542   -2.8103    0.0748 H   0  0  0  0  0
    6.9067   -1.1523   -1.6660 H   0  0  0  0  0
    6.1495   -2.4605   -2.5774 H   0  0  0  0  0
    9.1386   -2.2550   -1.9300 H   0  0  0  0  0
    8.3821   -1.9176   -3.4966 H   0  0  0  0  0
    8.3764   -3.5675   -2.8498 H   0  0  0  0  0
    5.9354   -3.4761    4.4837 H   0  0  0  0  0
    6.4283   -4.8331    3.4366 H   0  0  0  0  0
    4.7028   -4.3533    3.5671 H   0  0  0  0  0
  1  2  2  0  0  0
  2  8  1  0  0  0
  2  3  1  0  0  0
  3  4  1  0  0  0
  4  5  1  0  0  0
  4  9  1  0  0  0
  4 10  1  0  0  0
  5  6  1  0  0  0
  5 11  1  0  0  0
  5 12  1  0  0  0
  6  7  1  0  0  0
  6 13  1  0  0  0
  6 14  1  0  0  0
  7 15  1  0  0  0
  7 16  1  0  0  0
  7 17  1  0  0  0
  8 18  1  0  0  0
  8 19  1  0  0  0
  8 20  1  0  0  0
M  END