217
 OpenBabel11300911553D

 40 39  0  0  0  0  0  0  0  0999 V2000
    0.9073   -0.0627   -0.0223 N   0  0  0  0  0
    2.3645   -0.0608    0.0262 C   0  0  0  0  0
    2.8951    1.3710   -0.0254 C   0  0  0  0  0
    4.4243    1.3967    0.0237 C   0  0  0  0  0
    4.9587    2.8293   -0.0145 C   0  0  0  0  0
    6.4877    2.8528    0.0145 C   0  0  0  0  0
    7.0237    4.2854   -0.0086 C   0  0  0  0  0
    8.5533    4.3065   -0.0005 C   0  0  0  0  0
    9.0913    5.7381   -0.0080 C   0  0  0  0  0
   10.6206    5.7551   -0.0207 C   0  0  0  0  0
   11.1638    7.1856   -0.0133 C   0  0  0  0  0
   12.6912    7.1990   -0.0450 C   0  0  0  0  0
   13.2366    8.6179   -0.0279 C   0  0  0  0  0
    0.5712   -1.0246   -0.0372 H   0  0  0  0  0
    0.5922    0.3634   -0.8930 H   0  0  0  0  0
    2.7566   -0.6410   -0.8161 H   0  0  0  0  0
    2.6913   -0.5500    0.9497 H   0  0  0  0  0
    2.4920    1.9468    0.8177 H   0  0  0  0  0
    2.5520    1.8628   -0.9450 H   0  0  0  0  0
    4.8275    0.8306   -0.8248 H   0  0  0  0  0
    4.7711    0.9000    0.9380 H   0  0  0  0  0
    4.5658    3.3905    0.8418 H   0  0  0  0  0
    4.6016    3.3312   -0.9218 H   0  0  0  0  0
    6.8794    2.2999   -0.8481 H   0  0  0  0  0
    6.8468    2.3418    0.9161 H   0  0  0  0  0
    6.6431    4.8337    0.8619 H   0  0  0  0  0
    6.6544    4.8022   -0.9031 H   0  0  0  0  0
    8.9313    3.7668   -0.8772 H   0  0  0  0  0
    8.9233    3.7802    0.8876 H   0  0  0  0  0
    8.7245    6.2729    0.8763 H   0  0  0  0  0
    8.7114    6.2699   -0.8887 H   0  0  0  0  0
   10.9859    5.2284   -0.9110 H   0  0  0  0  0
   11.0022    5.2141    0.8540 H   0  0  0  0  0
   10.8089    7.7077    0.8838 H   0  0  0  0  0
   10.7729    7.7318   -0.8807 H   0  0  0  0  0
   13.0492    6.6877   -0.9461 H   0  0  0  0  0
   13.0873    6.6516    0.8178 H   0  0  0  0  0
   12.8817    9.1860   -0.8942 H   0  0  0  0  0
   14.3310    8.6040   -0.0564 H   0  0  0  0  0
   12.9275    9.1464    0.8799 H   0  0  0  0  0
  1  2  1  0  0  0
  1 14  1  0  0  0
  1 15  1  0  0  0
  2  3  1  0  0  0
  2 16  1  0  0  0
  2 17  1  0  0  0
  3  4  1  0  0  0
  3 18  1  0  0  0
  3 19  1  0  0  0
  4  5  1  0  0  0
  4 20  1  0  0  0
  4 21  1  0  0  0
  5  6  1  0  0  0
  5 22  1  0  0  0
  5 23  1  0  0  0
  6  7  1  0  0  0
  6 24  1  0  0  0
  6 25  1  0  0  0
  7  8  1  0  0  0
  7 26  1  0  0  0
  7 27  1  0  0  0
  8  9  1  0  0  0
  8 28  1  0  0  0
  8 29  1  0  0  0
  9 10  1  0  0  0
  9 30  1  0  0  0
  9 31  1  0  0  0
 10 11  1  0  0  0
 10 32  1  0  0  0
 10 33  1  0  0  0
 11 12  1  0  0  0
 11 34  1  0  0  0
 11 35  1  0  0  0
 12 13  1  0  0  0
 12 36  1  0  0  0
 12 37  1  0  0  0
 13 38  1  0  0  0
 13 39  1  0  0  0
 13 40  1  0  0  0
M  END