218
 OpenBabel11300911553D

 44 43  0  0  0  0  0  0  0  0999 V2000
    3.6909    0.9502   -1.0072 O   0  0  0  0  0
    4.3276   -0.3970   -0.8705 P   0  0  0  0  0
    3.3471   -1.5440   -0.3063 O   0  0  0  0  0
    2.1085   -1.7089   -0.9735 C   0  0  0  0  0
    1.2766   -2.7557   -0.2403 C   0  0  0  0  0
    0.9568   -2.3981    1.2146 C   0  0  0  0  0
    0.0961   -1.1520    1.3539 C   0  0  0  0  0
    4.9035   -1.0179   -2.2398 O   0  0  0  0  0
    5.5737   -2.2646   -2.1913 C   0  0  0  0  0
    5.9073   -2.7213   -3.6081 C   0  0  0  0  0
    6.8998   -1.7846   -4.3002 C   0  0  0  0  0
    7.2955   -2.3107   -5.6714 C   0  0  0  0  0
    5.5773   -0.4551    0.1450 O   0  0  0  0  0
    5.3358    0.0194    1.4609 C   0  0  0  0  0
    6.6275   -0.0824    2.2623 C   0  0  0  0  0
    6.4628    0.2900    3.7351 C   0  0  0  0  0
    6.0598    1.7402    3.9536 C   0  0  0  0  0
    2.3007   -2.0459   -1.9975 H   0  0  0  0  0
    1.5805   -0.7520   -1.0245 H   0  0  0  0  0
    1.8317   -3.7022   -0.2341 H   0  0  0  0  0
    0.3450   -2.9296   -0.7910 H   0  0  0  0  0
    1.8821   -2.2672    1.7873 H   0  0  0  0  0
    0.4239   -3.2422    1.6684 H   0  0  0  0  0
    0.6381   -0.2541    1.0420 H   0  0  0  0  0
   -0.1991   -1.0135    2.3990 H   0  0  0  0  0
   -0.8150   -1.2338    0.7527 H   0  0  0  0  0
    4.9263   -3.0093   -1.7174 H   0  0  0  0  0
    6.4874   -2.1685   -1.5959 H   0  0  0  0  0
    4.9865   -2.7627   -4.2027 H   0  0  0  0  0
    6.3226   -3.7347   -3.5673 H   0  0  0  0  0
    7.8011   -1.6760   -3.6855 H   0  0  0  0  0
    6.4611   -0.7864   -4.4126 H   0  0  0  0  0
    7.7858   -3.2861   -5.5893 H   0  0  0  0  0
    7.9936   -1.6207   -6.1555 H   0  0  0  0  0
    6.4198   -2.4195   -6.3190 H   0  0  0  0  0
    4.5510   -0.5890    1.9231 H   0  0  0  0  0
    4.9932    1.0570    1.4055 H   0  0  0  0  0
    7.3961    0.5469    1.7969 H   0  0  0  0  0
    7.0086   -1.1092    2.1948 H   0  0  0  0  0
    7.4150    0.1107    4.2485 H   0  0  0  0  0
    5.7217   -0.3674    4.2045 H   0  0  0  0  0
    6.7646    2.4219    3.4671 H   0  0  0  0  0
    6.0495    1.9702    5.0239 H   0  0  0  0  0
    5.0576    1.9410    3.5634 H   0  0  0  0  0
  1  2  2  0  0  0
  2 13  1  0  0  0
  2  8  1  0  0  0
  2  3  1  0  0  0
  3  4  1  0  0  0
  4  5  1  0  0  0
  4 18  1  0  0  0
  4 19  1  0  0  0
  5  6  1  0  0  0
  5 20  1  0  0  0
  5 21  1  0  0  0
  6  7  1  0  0  0
  6 22  1  0  0  0
  6 23  1  0  0  0
  7 24  1  0  0  0
  7 25  1  0  0  0
  7 26  1  0  0  0
  8  9  1  0  0  0
  9 10  1  0  0  0
  9 27  1  0  0  0
  9 28  1  0  0  0
 10 11  1  0  0  0
 10 29  1  0  0  0
 10 30  1  0  0  0
 11 12  1  0  0  0
 11 31  1  0  0  0
 11 32  1  0  0  0
 12 33  1  0  0  0
 12 34  1  0  0  0
 12 35  1  0  0  0
 13 14  1  0  0  0
 14 15  1  0  0  0
 14 36  1  0  0  0
 14 37  1  0  0  0
 15 16  1  0  0  0
 15 38  1  0  0  0
 15 39  1  0  0  0
 16 17  1  0  0  0
 16 40  1  0  0  0
 16 41  1  0  0  0
 17 42  1  0  0  0
 17 43  1  0  0  0
 17 44  1  0  0  0
M  END