219
 OpenBabel11300911553D

 12 11  0  0  0  0  0  0  0  0999 V2000
    1.0166    0.0061   -0.0119 O   0  0  0  0  0
    2.4482    0.0148   -0.0077 C   0  0  0  0  0
    2.9373   -0.7394   -1.2462 C   0  0  0  0  0
    4.7015   -0.9664   -1.2456 Cl  0  0  0  0  0
    2.9207    1.4635    0.0343 C   0  0  0  0  0
    0.7191    0.4493    0.8021 H   0  0  0  0  0
    2.7729   -0.5088    0.8991 H   0  0  0  0  0
    2.6589   -0.2107   -2.1641 H   0  0  0  0  0
    2.4736   -1.7302   -1.2960 H   0  0  0  0  0
    2.5793    2.0101   -0.8513 H   0  0  0  0  0
    4.0097    1.5378    0.0949 H   0  0  0  0  0
    2.4949    1.9784    0.9024 H   0  0  0  0  0
  1  2  1  0  0  0
  1  6  1  0  0  0
  2  5  1  0  0  0
  2  3  1  0  0  0
  2  7  1  0  0  0
  3  4  1  0  0  0
  3  8  1  0  0  0
  3  9  1  0  0  0
  5 10  1  0  0  0
  5 11  1  0  0  0
  5 12  1  0  0  0
M  END