220
 OpenBabel11300911193D

 22 22  0  0  0  0  0  0  0  0999 V2000
    1.1101    0.0696    0.4774 O   0  0  0  0  0
    2.2843    0.0065    0.1145 C   0  0  0  0  0
    3.1178    1.2603   -0.0341 C   0  0  0  0  0
    4.0363    1.2031   -1.2668 C   0  0  0  0  0
    4.8967   -0.0712   -1.2243 C   0  0  0  0  0
    4.0562   -1.3199   -1.0749 C   0  0  0  0  0
    4.3371   -2.3469   -1.6931 O   0  0  0  0  0
    3.2058    1.2528   -2.5640 C   0  0  0  0  0
    4.9686    2.4286   -1.2443 C   0  0  0  0  0
    2.9871   -1.3151   -0.0195 C   0  0  0  0  0
    3.7033    1.3695    0.8868 H   0  0  0  0  0
    2.4415    2.1211   -0.1011 H   0  0  0  0  0
    5.5929   -0.0469   -0.3771 H   0  0  0  0  0
    5.4928   -0.1608   -2.1404 H   0  0  0  0  0
    2.5160    0.4065   -2.6455 H   0  0  0  0  0
    3.8552    1.2343   -3.4467 H   0  0  0  0  0
    2.6083    2.1703   -2.6126 H   0  0  0  0  0
    5.5845    2.4424   -0.3379 H   0  0  0  0  0
    4.3959    3.3625   -1.2709 H   0  0  0  0  0
    5.6459    2.4268   -2.1059 H   0  0  0  0  0
    2.2440   -2.0767   -0.2767 H   0  0  0  0  0
    3.4471   -1.5623    0.9419 H   0  0  0  0  0
  1  2  2  0  0  0
  2  3  1  0  0  0
  2 10  1  0  0  0
  3  4  1  0  0  0
  3 11  1  0  0  0
  3 12  1  0  0  0
  4  5  1  0  0  0
  4  9  1  0  0  0
  4  8  1  0  0  0
  5  6  1  0  0  0
  5 13  1  0  0  0
  5 14  1  0  0  0
  6 10  1  0  0  0
  6  7  2  0  0  0
  8 15  1  0  0  0
  8 16  1  0  0  0
  8 17  1  0  0  0
  9 18  1  0  0  0
  9 19  1  0  0  0
  9 20  1  0  0  0
 10 21  1  0  0  0
 10 22  1  0  0  0
M  END