221
 OpenBabel11300911553D

 21 21  0  0  0  0  0  0  0  0999 V2000
    1.0808    0.4139   -0.0593 O   0  0  0  0  0
    2.4805    0.1167   -0.0034 C   0  0  0  0  0
    2.7239   -0.6753    1.2258 C   0  0  0  0  0
    2.9132   -1.3083    2.2316 C   0  0  0  0  0
    2.8488   -0.6584   -1.2754 C   0  0  0  0  0
    3.3920   -0.0235   -2.4069 C   0  0  0  0  0
    3.6844   -0.7411   -3.5714 C   0  0  0  0  0
    3.4303   -2.1074   -3.6356 C   0  0  0  0  0
    2.8760   -2.7573   -2.5385 C   0  0  0  0  0
    2.5813   -2.0403   -1.3757 C   0  0  0  0  0
    3.2011    1.4641    0.1582 C   0  0  0  0  0
    0.6699   -0.2517   -0.6349 H   0  0  0  0  0
    3.0759   -1.8644    3.1248 H   0  0  0  0  0
    3.5931    1.0447   -2.4111 H   0  0  0  0  0
    4.1076   -0.2277   -4.4314 H   0  0  0  0  0
    3.6588   -2.6629   -4.5411 H   0  0  0  0  0
    2.6694   -3.8236   -2.5853 H   0  0  0  0  0
    2.1374   -2.5797   -0.5403 H   0  0  0  0  0
    2.9104    2.1755   -0.6232 H   0  0  0  0  0
    4.2910    1.3492    0.1425 H   0  0  0  0  0
    2.9284    1.9437    1.1073 H   0  0  0  0  0
  1  2  1  0  0  0
  1 12  1  0  0  0
  2 11  1  0  0  0
  2  5  1  0  0  0
  2  3  1  0  0  0
  3  4  3  0  0  0
  4 13  1  0  0  0
  5  6  2  0  0  0
  5 10  1  0  0  0
  6  7  1  0  0  0
  6 14  1  0  0  0
  7  8  2  0  0  0
  7 15  1  0  0  0
  8  9  1  0  0  0
  8 16  1  0  0  0
  9 10  2  0  0  0
  9 17  1  0  0  0
 10 18  1  0  0  0
 11 19  1  0  0  0
 11 20  1  0  0  0
 11 21  1  0  0  0
M  END