222
 OpenBabel11300911553D

 40 40  0  0  0  0  0  0  0  0999 V2000
    0.6299   -0.0586    0.1571 O   0  0  0  0  0
    1.9959   -0.0301    0.0856 C   0  0  0  0  0
    2.6897   -1.2656    0.1006 C   0  0  0  0  0
    4.0935   -1.1947    0.0714 C   0  0  0  0  0
    4.7712    0.0274    0.0244 C   0  0  0  0  0
    4.0396    1.2196   -0.0098 C   0  0  0  0  0
    6.2717    0.0745   -0.0196 C   0  0  0  0  0
    1.9670   -2.6350    0.1228 C   0  0  0  0  0
    1.0723   -2.7887   -1.1276 C   0  0  0  0  0
    2.9335   -3.8495    0.1104 C   0  0  0  0  0
    1.1126   -2.7876    1.4007 C   0  0  0  0  0
    2.6344    1.2323    0.0126 C   0  0  0  0  0
    1.8550    2.5682   -0.0591 C   0  0  0  0  0
    0.9060    2.5808   -1.2789 C   0  0  0  0  0
    1.0461    2.7956    1.2365 C   0  0  0  0  0
    2.7682    3.8131   -0.2186 C   0  0  0  0  0
    0.4276   -0.0080    1.1069 H   0  0  0  0  0
    4.6979   -2.0972    0.0786 H   0  0  0  0  0
    4.6084    2.1438   -0.0626 H   0  0  0  0  0
    6.7103   -0.9236    0.0819 H   0  0  0  0  0
    6.6544    0.6907    0.8004 H   0  0  0  0  0
    6.6061    0.4953   -0.9733 H   0  0  0  0  0
    0.2538   -2.0640   -1.1568 H   0  0  0  0  0
    0.6108   -3.7828   -1.1622 H   0  0  0  0  0
    1.6566   -2.6614   -2.0466 H   0  0  0  0  0
    3.5874   -3.8543    0.9905 H   0  0  0  0  0
    3.5616   -3.8589   -0.7881 H   0  0  0  0  0
    2.3801   -4.7966    0.1204 H   0  0  0  0  0
    1.7101   -2.5964    2.2997 H   0  0  0  0  0
    0.7038   -3.8020    1.4829 H   0  0  0  0  0
    0.2536   -2.1126    1.4229 H   0  0  0  0  0
    1.4538    2.3711   -2.2053 H   0  0  0  0  0
    0.4229    3.5587   -1.3926 H   0  0  0  0  0
    0.0997    1.8465   -1.2000 H   0  0  0  0  0
    1.6894    2.7218    2.1212 H   0  0  0  0  0
    0.2304    2.0790    1.3601 H   0  0  0  0  0
    0.5844    3.7904    1.2436 H   0  0  0  0  0
    3.4444    3.9319    0.6363 H   0  0  0  0  0
    2.1756    4.7340   -0.2827 H   0  0  0  0  0
    3.3713    3.7577   -1.1325 H   0  0  0  0  0
  1  2  1  0  0  0
  1 17  1  0  0  0
  2  3  2  0  0  0
  2 12  1  0  0  0
  3  4  1  0  0  0
  3  8  1  0  0  0
  4  5  2  0  0  0
  4 18  1  0  0  0
  5  6  1  0  0  0
  5  7  1  0  0  0
  6 12  2  0  0  0
  6 19  1  0  0  0
  7 20  1  0  0  0
  7 21  1  0  0  0
  7 22  1  0  0  0
  8 11  1  0  0  0
  8 10  1  0  0  0
  8  9  1  0  0  0
  9 23  1  0  0  0
  9 24  1  0  0  0
  9 25  1  0  0  0
 10 26  1  0  0  0
 10 27  1  0  0  0
 10 28  1  0  0  0
 11 29  1  0  0  0
 11 30  1  0  0  0
 11 31  1  0  0  0
 12 13  1  0  0  0
 13 16  1  0  0  0
 13 15  1  0  0  0
 13 14  1  0  0  0
 14 32  1  0  0  0
 14 33  1  0  0  0
 14 34  1  0  0  0
 15 35  1  0  0  0
 15 36  1  0  0  0
 15 37  1  0  0  0
 16 38  1  0  0  0
 16 39  1  0  0  0
 16 40  1  0  0  0
M  END