223
 OpenBabel11300911553D

 28 29  0  0  0  0  0  0  0  0999 V2000
    1.4326    2.2327    0.3946 O   0  0  0  0  0
    2.7023    1.7939    0.1392 C   0  0  0  0  0
    3.7294    2.7353    0.0054 C   0  0  0  0  0
    5.0452    2.3299   -0.2369 C   0  0  0  0  0
    6.0818    3.2698   -0.2397 N   0  0  0  0  0
    5.3367    0.9639   -0.2323 C   0  0  0  0  0
    4.3151    0.0176   -0.1058 C   0  0  0  0  0
    2.9844    0.4255    0.0576 C   0  0  0  0  0
    1.9587   -0.6406    0.1823 C   0  0  0  0  0
    2.2097   -1.7454    0.6419 O   0  0  0  0  0
    0.7699   -0.2118   -0.3826 O   0  0  0  0  0
   -0.3550   -1.0572   -0.4264 C   0  0  0  0  0
   -1.5902   -0.4446   -0.2097 C   0  0  0  0  0
   -2.7590   -1.2012   -0.2953 C   0  0  0  0  0
   -2.6871   -2.5602   -0.6051 C   0  0  0  0  0
   -1.4484   -3.1617   -0.8365 C   0  0  0  0  0
   -0.2771   -2.4076   -0.7578 C   0  0  0  0  0
    1.4240    3.2040    0.4286 H   0  0  0  0  0
    3.5141    3.7959    0.0987 H   0  0  0  0  0
    5.8061    4.1953   -0.5528 H   0  0  0  0  0
    6.9284    2.9494   -0.7009 H   0  0  0  0  0
    6.3641    0.6214   -0.3273 H   0  0  0  0  0
    4.5652   -1.0422   -0.1230 H   0  0  0  0  0
   -1.6394    0.6142    0.0244 H   0  0  0  0  0
   -3.7240   -0.7324   -0.1236 H   0  0  0  0  0
   -3.5970   -3.1512   -0.6706 H   0  0  0  0  0
   -1.3946   -4.2192   -1.0822 H   0  0  0  0  0
    0.6792   -2.8832   -0.9548 H   0  0  0  0  0
  1  2  1  0  0  0
  1 18  1  0  0  0
  2  3  2  0  0  0
  2  8  1  0  0  0
  3  4  1  0  0  0
  3 19  1  0  0  0
  4  6  2  0  0  0
  4  5  1  0  0  0
  5 20  1  0  0  0
  5 21  1  0  0  0
  6  7  1  0  0  0
  6 22  1  0  0  0
  7  8  2  0  0  0
  7 23  1  0  0  0
  8  9  1  0  0  0
  9 11  1  0  0  0
  9 10  2  0  0  0
 11 12  1  0  0  0
 12 13  2  0  0  0
 12 17  1  0  0  0
 13 14  1  0  0  0
 13 24  1  0  0  0
 14 15  2  0  0  0
 14 25  1  0  0  0
 15 16  1  0  0  0
 15 26  1  0  0  0
 16 17  2  0  0  0
 16 27  1  0  0  0
 17 28  1  0  0  0
M  END