224
 OpenBabel11300911563D

 31 31  0  0  0  0  0  0  0  0999 V2000
    1.5828    0.2186    0.8401 O   0  0  0  0  0
    2.7585    0.1296    0.4927 C   0  0  0  0  0
    3.4401   -1.0879    0.3997 N   0  0  0  0  0
    2.6844   -2.3013    0.7109 C   0  0  0  0  0
    1.9729   -2.8467   -0.5165 C   0  0  0  0  0
    4.8798   -1.2443    0.1759 C   0  0  0  0  0
    5.6580   -1.2870    1.4821 C   0  0  0  0  0
    3.4567    1.3963    0.1781 C   0  0  0  0  0
    3.9704    1.6390   -1.0990 C   0  0  0  0  0
    4.5792    2.8629   -1.3766 C   0  0  0  0  0
    4.6396    3.8525   -0.3926 C   0  0  0  0  0
    4.0855    3.6350    0.8763 C   0  0  0  0  0
    4.1070    4.7292    1.9020 C   0  0  0  0  0
    3.4899    2.3986    1.1553 C   0  0  0  0  0
    1.9458   -2.0841    1.4915 H   0  0  0  0  0
    3.3634   -3.0587    1.1180 H   0  0  0  0  0
    1.2647   -2.1159   -0.9207 H   0  0  0  0  0
    1.4179   -3.7553   -0.2617 H   0  0  0  0  0
    2.6885   -3.0919   -1.3079 H   0  0  0  0  0
    5.2716   -0.4295   -0.4322 H   0  0  0  0  0
    5.0405   -2.1661   -0.3944 H   0  0  0  0  0
    5.4916   -0.3793    2.0710 H   0  0  0  0  0
    6.7299   -1.3751    1.2809 H   0  0  0  0  0
    5.3578   -2.1432    2.0953 H   0  0  0  0  0
    3.8886    0.8849   -1.8767 H   0  0  0  0  0
    4.9909    3.0541   -2.3633 H   0  0  0  0  0
    5.1043    4.8089   -0.6277 H   0  0  0  0  0
    3.6593    4.4032    2.8471 H   0  0  0  0  0
    3.5386    5.5927    1.5420 H   0  0  0  0  0
    5.1373    5.0360    2.1073 H   0  0  0  0  0
    3.0320    2.2120    2.1242 H   0  0  0  0  0
  1  2  2  0  0  0
  2  8  1  0  0  0
  2  3  1  0  0  0
  3  6  1  0  0  0
  3  4  1  0  0  0
  4  5  1  0  0  0
  4 15  1  0  0  0
  4 16  1  0  0  0
  5 17  1  0  0  0
  5 18  1  0  0  0
  5 19  1  0  0  0
  6  7  1  0  0  0
  6 20  1  0  0  0
  6 21  1  0  0  0
  7 22  1  0  0  0
  7 23  1  0  0  0
  7 24  1  0  0  0
  8  9  2  0  0  0
  8 14  1  0  0  0
  9 10  1  0  0  0
  9 25  1  0  0  0
 10 11  2  0  0  0
 10 26  1  0  0  0
 11 12  1  0  0  0
 11 27  1  0  0  0
 12 14  2  0  0  0
 12 13  1  0  0  0
 13 28  1  0  0  0
 13 29  1  0  0  0
 13 30  1  0  0  0
 14 31  1  0  0  0
M  END