225
 OpenBabel11300911563D

 38 37  0  0  0  0  0  0  0  0999 V2000
    2.8868    1.9187   -1.3995 O   0  0  0  0  0
    2.2099    2.1832   -0.4167 C   0  0  0  0  0
    0.8489    2.2348   -0.3773 O   0  0  0  0  0
    0.1490    2.0050   -1.6105 C   0  0  0  0  0
   -0.7660    0.7900   -1.4796 C   0  0  0  0  0
   -1.8108    0.9577   -0.3740 C   0  0  0  0  0
   -2.7791   -0.2151   -0.3423 C   0  0  0  0  0
    2.7584    2.5769    0.9357 C   0  0  0  0  0
    4.2832    2.5735    0.9563 C   0  0  0  0  0
    4.8360    1.1779    1.0954 C   0  0  0  0  0
    4.1646    0.1600    1.1570 O   0  0  0  0  0
    6.1958    1.2309    1.1692 O   0  0  0  0  0
    6.8666   -0.0384    1.2438 C   0  0  0  0  0
    6.9061   -0.5425    2.6847 C   0  0  0  0  0
    7.7003   -1.8374    2.8573 C   0  0  0  0  0
    7.1228   -3.0113    2.0808 C   0  0  0  0  0
    0.8264    1.8647   -2.4594 H   0  0  0  0  0
   -0.4458    2.9019   -1.8154 H   0  0  0  0  0
   -0.1607   -0.0985   -1.2640 H   0  0  0  0  0
   -1.2692    0.6232   -2.4395 H   0  0  0  0  0
   -2.3763    1.8834   -0.5316 H   0  0  0  0  0
   -1.3177    1.0399    0.6013 H   0  0  0  0  0
   -3.3189   -0.3035   -1.2907 H   0  0  0  0  0
   -3.5163   -0.0772    0.4549 H   0  0  0  0  0
   -2.2510   -1.1561   -0.1585 H   0  0  0  0  0
    2.3467    1.9061    1.6970 H   0  0  0  0  0
    2.4107    3.5966    1.1381 H   0  0  0  0  0
    4.6231    3.1483    1.8262 H   0  0  0  0  0
    4.6960    3.0280    0.0493 H   0  0  0  0  0
    7.8866    0.1233    0.8787 H   0  0  0  0  0
    6.3925   -0.7549    0.5639 H   0  0  0  0  0
    5.8859   -0.6828    3.0613 H   0  0  0  0  0
    7.3471    0.2352    3.3212 H   0  0  0  0  0
    7.7157   -2.0965    3.9228 H   0  0  0  0  0
    8.7420   -1.6793    2.5550 H   0  0  0  0  0
    6.0617   -3.1519    2.3093 H   0  0  0  0  0
    7.6521   -3.9331    2.3427 H   0  0  0  0  0
    7.2288   -2.8669    1.0015 H   0  0  0  0  0
  1  2  2  0  0  0
  2  8  1  0  0  0
  2  3  1  0  0  0
  3  4  1  0  0  0
  4  5  1  0  0  0
  4 17  1  0  0  0
  4 18  1  0  0  0
  5  6  1  0  0  0
  5 19  1  0  0  0
  5 20  1  0  0  0
  6  7  1  0  0  0
  6 21  1  0  0  0
  6 22  1  0  0  0
  7 23  1  0  0  0
  7 24  1  0  0  0
  7 25  1  0  0  0
  8  9  1  0  0  0
  8 26  1  0  0  0
  8 27  1  0  0  0
  9 10  1  0  0  0
  9 28  1  0  0  0
  9 29  1  0  0  0
 10 12  1  0  0  0
 10 11  2  0  0  0
 12 13  1  0  0  0
 13 14  1  0  0  0
 13 30  1  0  0  0
 13 31  1  0  0  0
 14 15  1  0  0  0
 14 32  1  0  0  0
 14 33  1  0  0  0
 15 16  1  0  0  0
 15 34  1  0  0  0
 15 35  1  0  0  0
 16 36  1  0  0  0
 16 37  1  0  0  0
 16 38  1  0  0  0
M  END