228
 OpenBabel11300911193D

 21 21  0  0  0  0  0  0  0  0999 V2000
    0.6276    1.2325   -0.0876 O   0  0  0  0  0
    1.3541    0.0481    0.2825 C   0  0  0  0  0
    0.6495   -1.2266   -0.2314 C   0  0  0  0  0
   -0.7658   -1.3192    0.1705 N   0  0  0  0  0
   -1.4442   -0.0844   -0.2655 C   0  0  0  0  0
    1.6251    0.0206    1.7858 C   0  0  0  0  0
   -0.7597    1.1850    0.2826 C   0  0  0  0  0
   -1.4239    2.4394   -0.2705 C   0  0  0  0  0
    2.3244    0.1223   -0.2229 H   0  0  0  0  0
    1.1800   -2.1190    0.1182 H   0  0  0  0  0
    0.6934   -1.2427   -1.3277 H   0  0  0  0  0
   -0.8144   -1.3749    1.1873 H   0  0  0  0  0
   -2.4878   -0.1200    0.0664 H   0  0  0  0  0
   -1.4573   -0.0645   -1.3627 H   0  0  0  0  0
    0.7079   -0.0789    2.3735 H   0  0  0  0  0
    2.1022    0.9547    2.1011 H   0  0  0  0  0
    2.2849   -0.8128    2.0463 H   0  0  0  0  0
   -0.8364    1.2124    1.3757 H   0  0  0  0  0
   -1.3350    2.4818   -1.3618 H   0  0  0  0  0
   -0.9305    3.3361    0.1199 H   0  0  0  0  0
   -2.4840    2.4798   -0.0025 H   0  0  0  0  0
  1  2  1  0  0  0
  1  7  1  0  0  0
  2  3  1  0  0  0
  2  6  1  0  0  0
  2  9  1  0  0  0
  3  4  1  0  0  0
  3 10  1  0  0  0
  3 11  1  0  0  0
  4  5  1  0  0  0
  4 12  1  0  0  0
  5  7  1  0  0  0
  5 13  1  0  0  0
  5 14  1  0  0  0
  6 15  1  0  0  0
  6 16  1  0  0  0
  6 17  1  0  0  0
  7  8  1  0  0  0
  7 18  1  0  0  0
  8 19  1  0  0  0
  8 20  1  0  0  0
  8 21  1  0  0  0
M  END