230
 OpenBabel11300911563D

 11 10  0  0  0  0  0  0  0  0999 V2000
    2.7829   -1.2114    1.4404 Cl  0  0  0  0  0
    2.8407   -0.3504   -0.1155 C   0  0  0  0  0
    3.5350    1.0019    0.0135 C   0  0  0  0  0
    5.0124    0.9323    0.3844 C   0  0  0  0  0
    5.9755    0.1516   -0.8934 Cl  0  0  0  0  0
    1.8055   -0.2062   -0.4396 H   0  0  0  0  0
    3.3317   -1.0003   -0.8448 H   0  0  0  0  0
    3.0129    1.6033    0.7680 H   0  0  0  0  0
    3.4268    1.5420   -0.9361 H   0  0  0  0  0
    5.1805    0.3868    1.3157 H   0  0  0  0  0
    5.4105    1.9428    0.5110 H   0  0  0  0  0
  1  2  1  0  0  0
  2  3  1  0  0  0
  2  6  1  0  0  0
  2  7  1  0  0  0
  3  4  1  0  0  0
  3  8  1  0  0  0
  3  9  1  0  0  0
  4  5  1  0  0  0
  4 10  1  0  0  0
  4 11  1  0  0  0
M  END