233
 OpenBabel11300911193D

 30 29  0  0  0  0  0  0  0  0999 V2000
    0.9101    0.0296   -0.0135 O   0  0  0  0  0
    2.3297   -0.0195    0.0236 C   0  0  0  0  0
    2.8719    1.4019   -0.0167 C   0  0  0  0  0
    4.3989    1.4250    0.0160 C   0  0  0  0  0
    4.9332    2.8576   -0.0108 C   0  0  0  0  0
    6.4625    2.8840    0.0095 C   0  0  0  0  0
    6.9918    4.3191    0.0023 C   0  0  0  0  0
    8.5208    4.3510    0.0086 C   0  0  0  0  0
    9.0448    5.7872    0.0209 C   0  0  0  0  0
   10.5645    5.8272    0.0172 C   0  0  0  0  0
    0.5920   -0.8887    0.0142 H   0  0  0  0  0
    2.6808   -0.5967   -0.8378 H   0  0  0  0  0
    2.6364   -0.5287    0.9429 H   0  0  0  0  0
    2.4650    1.9696    0.8293 H   0  0  0  0  0
    2.5044    1.9054   -0.9196 H   0  0  0  0  0
    4.7929    0.8686   -0.8431 H   0  0  0  0  0
    4.7548    0.9173    0.9210 H   0  0  0  0  0
    4.5445    3.4098    0.8535 H   0  0  0  0  0
    4.5698    3.3686   -0.9108 H   0  0  0  0  0
    6.8506    2.3437   -0.8624 H   0  0  0  0  0
    6.8279    2.3624    0.9025 H   0  0  0  0  0
    6.6095    4.8545    0.8800 H   0  0  0  0  0
    6.6178    4.8443   -0.8849 H   0  0  0  0  0
    8.9029    3.8275   -0.8763 H   0  0  0  0  0
    8.8972    3.8154    0.8887 H   0  0  0  0  0
    8.6737    6.3106    0.9098 H   0  0  0  0  0
    8.6688    6.3287   -0.8550 H   0  0  0  0  0
   10.9727    5.3179    0.8960 H   0  0  0  0  0
   10.9160    6.8636    0.0314 H   0  0  0  0  0
   10.9674    5.3441   -0.8785 H   0  0  0  0  0
  1  2  1  0  0  0
  1 11  1  0  0  0
  2  3  1  0  0  0
  2 12  1  0  0  0
  2 13  1  0  0  0
  3  4  1  0  0  0
  3 14  1  0  0  0
  3 15  1  0  0  0
  4  5  1  0  0  0
  4 16  1  0  0  0
  4 17  1  0  0  0
  5  6  1  0  0  0
  5 18  1  0  0  0
  5 19  1  0  0  0
  6  7  1  0  0  0
  6 20  1  0  0  0
  6 21  1  0  0  0
  7  8  1  0  0  0
  7 22  1  0  0  0
  7 23  1  0  0  0
  8  9  1  0  0  0
  8 24  1  0  0  0
  8 25  1  0  0  0
  9 10  1  0  0  0
  9 26  1  0  0  0
  9 27  1  0  0  0
 10 28  1  0  0  0
 10 29  1  0  0  0
 10 30  1  0  0  0
M  END