235
 OpenBabel11300911193D

 17 17  0  0  0  0  0  0  0  0999 V2000
    0.8166    0.0874    0.4226 O   0  0  0  0  0
    0.2889    1.3297    0.1965 C   0  0  0  0  0
   -1.0514    1.3268   -0.2045 C   0  0  0  0  0
   -1.7188    2.5238   -0.4701 C   0  0  0  0  0
   -1.0454    3.7345   -0.3348 C   0  0  0  0  0
    0.2863    3.7365    0.0634 C   0  0  0  0  0
    0.9057    4.9471    0.1824 O   0  0  0  0  0
    0.9623    2.5457    0.3314 C   0  0  0  0  0
    2.1748    0.0278    0.8384 C   0  0  0  0  0
   -1.5789    0.3818   -0.3110 H   0  0  0  0  0
   -2.7596    2.5099   -0.7809 H   0  0  0  0  0
   -1.5547    4.6719   -0.5387 H   0  0  0  0  0
    1.8235    4.8038    0.4644 H   0  0  0  0  0
    1.9995    2.5811    0.6395 H   0  0  0  0  0
    2.4363   -1.0257    0.9764 H   0  0  0  0  0
    2.3161    0.5345    1.7987 H   0  0  0  0  0
    2.8404    0.4386    0.0722 H   0  0  0  0  0
  1  9  1  0  0  0
  1  2  1  0  0  0
  2  3  2  0  0  0
  2  8  1  0  0  0
  3  4  1  0  0  0
  3 10  1  0  0  0
  4  5  2  0  0  0
  4 11  1  0  0  0
  5  6  1  0  0  0
  5 12  1  0  0  0
  6  8  2  0  0  0
  6  7  1  0  0  0
  7 13  1  0  0  0
  8 14  1  0  0  0
  9 15  1  0  0  0
  9 16  1  0  0  0
  9 17  1  0  0  0
M  END