238
 OpenBabel11300911193D

 15 16  0  0  0  0  0  0  0  0999 V2000
    2.1151   -0.6987   -0.0001 C   0  0  0  0  0
    2.1466    0.6987   -0.0003 C   0  0  0  0  0
    0.9617    1.4494   -0.0002 C   0  0  0  0  0
   -0.2683    0.7679   -0.0002 C   0  0  0  0  0
   -1.6379    1.1417   -0.0001 C   0  0  0  0  0
   -2.3607   -0.0296    0.0000 C   0  0  0  0  0
   -1.5308   -1.1048    0.0001 O   0  0  0  0  0
   -0.2572   -0.6224    0.0001 C   0  0  0  0  0
    0.9017   -1.3950    0.0000 C   0  0  0  0  0
    3.0494   -1.2567   -0.0003 H   0  0  0  0  0
    3.1051    1.2138   -0.0005 H   0  0  0  0  0
    0.9980    2.5344   -0.0005 H   0  0  0  0  0
   -2.0469    2.1416   -0.0002 H   0  0  0  0  0
   -3.4176   -0.2574    0.0001 H   0  0  0  0  0
    0.8575   -2.4769    0.0001 H   0  0  0  0  0
  1  2  2  0  0  0
  1  9  1  0  0  0
  1 10  1  0  0  0
  2  3  1  0  0  0
  2 11  1  0  0  0
  3  4  2  0  0  0
  3 12  1  0  0  0
  4  8  1  0  0  0
  4  5  1  0  0  0
  5  6  2  0  0  0
  5 13  1  0  0  0
  6  7  1  0  0  0
  6 14  1  0  0  0
  7  8  1  0  0  0
  8  9  2  0  0  0
  9 15  1  0  0  0
M  END