239
 OpenBabel11300911193D

 27 27  0  0  0  0  0  0  0  0999 V2000
   -0.8402    0.9825   -0.4202 N   0  0  0  0  0
    0.5217    1.0643   -0.4137 C   0  0  0  0  0
    1.0503    2.1059   -0.7946 O   0  0  0  0  0
    1.2010   -0.0585    0.0275 N   0  0  0  0  0
    2.6766    0.0002    0.0456 C   0  0  0  0  0
    3.2414   -0.2007    1.4574 C   0  0  0  0  0
    3.3388   -0.9623   -0.9613 C   0  0  0  0  0
    2.9351   -0.6766   -2.4019 C   0  0  0  0  0
    0.5495   -1.2288    0.4087 C   0  0  0  0  0
    1.1465   -2.2494    0.7527 O   0  0  0  0  0
   -0.9532   -1.2171    0.3873 C   0  0  0  0  0
   -1.8260   -2.7797    0.9388 Br  0  0  0  0  0
   -1.5789   -0.1043   -0.0312 C   0  0  0  0  0
   -3.0681    0.0917   -0.1225 C   0  0  0  0  0
   -1.3038    1.8250   -0.7452 H   0  0  0  0  0
    2.9860    1.0114   -0.2469 H   0  0  0  0  0
    3.1010   -1.2214    1.8240 H   0  0  0  0  0
    2.7587    0.4800    2.1669 H   0  0  0  0  0
    4.3170    0.0059    1.4717 H   0  0  0  0  0
    3.1066   -2.0063   -0.7275 H   0  0  0  0  0
    4.4290   -0.8641   -0.8846 H   0  0  0  0  0
    1.8631   -0.8318   -2.5562 H   0  0  0  0  0
    3.4709   -1.3464   -3.0821 H   0  0  0  0  0
    3.1795    0.3535   -2.6802 H   0  0  0  0  0
   -3.3638    0.9947    0.4238 H   0  0  0  0  0
   -3.6497   -0.7344    0.2926 H   0  0  0  0  0
   -3.3667    0.2133   -1.1694 H   0  0  0  0  0
  1 13  1  0  0  0
  1  2  1  0  0  0
  1 15  1  0  0  0
  2  4  1  0  0  0
  2  3  2  0  0  0
  4  9  1  0  0  0
  4  5  1  0  0  0
  5  7  1  0  0  0
  5  6  1  0  0  0
  5 16  1  0  0  0
  6 17  1  0  0  0
  6 18  1  0  0  0
  6 19  1  0  0  0
  7  8  1  0  0  0
  7 20  1  0  0  0
  7 21  1  0  0  0
  8 22  1  0  0  0
  8 23  1  0  0  0
  8 24  1  0  0  0
  9 11  1  0  0  0
  9 10  2  0  0  0
 11 13  2  0  0  0
 11 12  1  0  0  0
 13 14  1  0  0  0
 14 25  1  0  0  0
 14 26  1  0  0  0
 14 27  1  0  0  0
M  END