246
 OpenBabel11300911203D

 14 14  0  0  0  0  0  0  0  0999 V2000
    0.9817    0.0183    0.1878 F   0  0  0  0  0
    2.3119    0.0374    0.0340 C   0  0  0  0  0
    2.9766    1.2544   -0.0366 C   0  0  0  0  0
    4.3649    1.2710   -0.1908 C   0  0  0  0  0
    5.0824    0.0764   -0.3188 C   0  0  0  0  0
    6.4813    0.0964   -0.3454 N   0  0  0  0  0
    4.3997   -1.1377   -0.1842 C   0  0  0  0  0
    3.0113   -1.1603   -0.0300 C   0  0  0  0  0
    2.4164    2.1797    0.0443 H   0  0  0  0  0
    4.8831    2.2260   -0.2102 H   0  0  0  0  0
    6.8963   -0.7410   -0.7420 H   0  0  0  0  0
    6.8720    0.9430   -0.7469 H   0  0  0  0  0
    4.9451   -2.0777   -0.1984 H   0  0  0  0  0
    2.4780   -2.1013    0.0560 H   0  0  0  0  0
  1  2  1  0  0  0
  2  3  2  0  0  0
  2  8  1  0  0  0
  3  4  1  0  0  0
  3  9  1  0  0  0
  4  5  2  0  0  0
  4 10  1  0  0  0
  5  7  1  0  0  0
  5  6  1  0  0  0
  6 11  1  0  0  0
  6 12  1  0  0  0
  7  8  2  0  0  0
  7 13  1  0  0  0
  8 14  1  0  0  0
M  END