248
 OpenBabel11300911563D

 17 17  0  0  0  0  0  0  0  0999 V2000
    1.0046    0.0777    0.3196 N   0  0  0  0  0
    2.3662    0.0475   -0.0111 C   0  0  0  0  0
    3.0858    1.2538    0.0389 C   0  0  0  0  0
    4.4682    1.2803   -0.1523 C   0  0  0  0  0
    5.1473    0.0905   -0.3497 C   0  0  0  0  0
    6.4750    0.1059   -0.5241 F   0  0  0  0  0
    4.4713   -1.1216   -0.3458 C   0  0  0  0  0
    3.0741   -1.1592   -0.1616 C   0  0  0  0  0
    2.3982   -2.5045   -0.1018 C   0  0  0  0  0
    3.0037   -3.4358   -0.8949 F   0  0  0  0  0
    2.3930   -3.0373    1.1512 F   0  0  0  0  0
    1.0940   -2.4831   -0.5075 F   0  0  0  0  0
    0.5447    0.9637    0.1277 H   0  0  0  0  0
    0.4558   -0.7074   -0.0313 H   0  0  0  0  0
    2.5680    2.1908    0.2306 H   0  0  0  0  0
    5.0142    2.2177   -0.1295 H   0  0  0  0  0
    5.0413   -2.0393   -0.4736 H   0  0  0  0  0
  1  2  1  0  0  0
  1 13  1  0  0  0
  1 14  1  0  0  0
  2  3  2  0  0  0
  2  8  1  0  0  0
  3  4  1  0  0  0
  3 15  1  0  0  0
  4  5  2  0  0  0
  4 16  1  0  0  0
  5  7  1  0  0  0
  5  6  1  0  0  0
  7  8  2  0  0  0
  7 17  1  0  0  0
  8  9  1  0  0  0
  9 12  1  0  0  0
  9 11  1  0  0  0
  9 10  1  0  0  0
M  END