251
 OpenBabel11300911203D

 17 17  0  0  0  0  0  0  0  0999 V2000
    2.7356   -1.1124   -0.0739 O   0  0  0  0  0
    2.2034   -0.0244    0.0975 C   0  0  0  0  0
    2.9516    1.2421   -0.0344 C   0  0  0  0  0
    2.2895    2.4540    0.1733 C   0  0  0  0  0
    2.9921    3.6529    0.0499 C   0  0  0  0  0
    4.3500    3.6396   -0.2797 C   0  0  0  0  0
    5.0246    2.4262   -0.4905 C   0  0  0  0  0
    6.4910    2.3961   -0.8473 C   0  0  0  0  0
    7.2351    1.7130    0.0651 F   0  0  0  0  0
    6.7227    1.7974   -2.0476 F   0  0  0  0  0
    7.0533    3.6342   -0.9342 F   0  0  0  0  0
    4.3108    1.2236   -0.3646 C   0  0  0  0  0
    1.1349    0.0583    0.3597 H   0  0  0  0  0
    1.2335    2.4791    0.4302 H   0  0  0  0  0
    2.4830    4.6012    0.2102 H   0  0  0  0  0
    4.8826    4.5861   -0.3718 H   0  0  0  0  0
    4.8162    0.2706   -0.5243 H   0  0  0  0  0
  1  2  2  0  0  0
  2  3  1  0  0  0
  2 13  1  0  0  0
  3  4  2  0  0  0
  3 12  1  0  0  0
  4  5  1  0  0  0
  4 14  1  0  0  0
  5  6  2  0  0  0
  5 15  1  0  0  0
  6  7  1  0  0  0
  6 16  1  0  0  0
  7 12  2  0  0  0
  7  8  1  0  0  0
  8 11  1  0  0  0
  8 10  1  0  0  0
  8  9  1  0  0  0
 12 17  1  0  0  0
M  END