254
 OpenBabel11300911203D

 17 18  0  0  0  0  0  0  0  0999 V2000
   -1.3114   -1.4854    0.0059 O   0  0  0  0  0
   -0.1801   -0.7182    0.0036 C   0  0  0  0  0
   -0.4183    0.6441    0.0109 C   0  0  0  0  0
    0.6298    1.5488    0.0090 C   0  0  0  0  0
    1.9348    1.0489   -0.0003 C   0  0  0  0  0
    2.1695   -0.3356   -0.0076 C   0  0  0  0  0
   -1.8730    0.8985    0.0190 C   0  0  0  0  0
    1.1003   -1.2338   -0.0057 C   0  0  0  0  0
   -2.4037   -0.5380    0.0186 C   0  0  0  0  0
    0.4486    2.6188    0.0143 H   0  0  0  0  0
    2.7771    1.7366   -0.0020 H   0  0  0  0  0
    3.1898   -0.7105   -0.0148 H   0  0  0  0  0
   -2.1915    1.4387    0.9156 H   0  0  0  0  0
   -2.2003    1.4425   -0.8721 H   0  0  0  0  0
    1.2664   -2.3049   -0.0113 H   0  0  0  0  0
   -3.0151   -0.7308    0.9076 H   0  0  0  0  0
   -3.0305   -0.7245   -0.8610 H   0  0  0  0  0
  1  2  1  0  0  0
  1  9  1  0  0  0
  2  8  1  0  0  0
  2  3  2  0  0  0
  3  7  1  0  0  0
  3  4  1  0  0  0
  4  5  2  0  0  0
  4 10  1  0  0  0
  5  6  1  0  0  0
  5 11  1  0  0  0
  6  8  2  0  0  0
  6 12  1  0  0  0
  7  9  1  0  0  0
  7 13  1  0  0  0
  7 14  1  0  0  0
  8 15  1  0  0  0
  9 16  1  0  0  0
  9 17  1  0  0  0
M  END