255
 OpenBabel11300911203D

 13 13  0  0  0  0  0  0  0  0999 V2000
    2.7909   -1.1021   -0.0060 O   0  0  0  0  0
    2.2249   -0.0190    0.0660 C   0  0  0  0  0
    2.9615    1.2495   -0.0112 C   0  0  0  0  0
    2.2887    2.4673    0.0739 C   0  0  0  0  0
    3.0227    3.6492   -0.0036 C   0  0  0  0  0
    4.3981    3.5635   -0.1628 C   0  0  0  0  0
    5.0732    2.3955   -0.2479 N   0  0  0  0  0
    4.3392    1.2581   -0.1702 C   0  0  0  0  0
    1.1316    0.0510    0.1926 H   0  0  0  0  0
    1.2108    2.5088    0.1985 H   0  0  0  0  0
    2.5356    4.6162    0.0586 H   0  0  0  0  0
    5.0120    4.4574   -0.2282 H   0  0  0  0  0
    4.9088    0.3345   -0.2416 H   0  0  0  0  0
  1  2  2  0  0  0
  2  3  1  0  0  0
  2  9  1  0  0  0
  3  4  2  0  0  0
  3  8  1  0  0  0
  4  5  1  0  0  0
  4 10  1  0  0  0
  5  6  2  0  0  0
  5 11  1  0  0  0
  6  7  1  0  0  0
  6 12  1  0  0  0
  7  8  2  0  0  0
  8 13  1  0  0  0
M  END