258
 OpenBabel11300911203D

 27 29  0  0  0  0  0  0  0  0999 V2000
   -2.3551    0.7983   -0.1436 C   0  0  0  0  0
   -2.4710   -0.5858    0.0026 C   0  0  0  0  0
   -1.3250   -1.3759    0.1028 C   0  0  0  0  0
   -0.0653   -0.7721    0.0556 C   0  0  0  0  0
    1.1610   -1.5760    0.1604 C   0  0  0  0  0
    1.1394   -2.7933    0.2886 O   0  0  0  0  0
    2.4347   -0.8423    0.1021 C   0  0  0  0  0
    2.4199    0.4910   -0.0497 C   0  0  0  0  0
    3.6666    1.2793   -0.1049 C   0  0  0  0  0
    3.7509    2.5059    0.5719 C   0  0  0  0  0
    4.9191    3.2712    0.5241 C   0  0  0  0  0
    6.0169    2.8233   -0.2064 C   0  0  0  0  0
    5.9466    1.6131   -0.8925 C   0  0  0  0  0
    4.7783    0.8472   -0.8450 C   0  0  0  0  0
    1.2631    1.2511   -0.1408 O   0  0  0  0  0
    0.0527    0.6076   -0.0900 C   0  0  0  0  0
   -1.0933    1.3959   -0.1902 C   0  0  0  0  0
   -3.2494    1.4123   -0.2219 H   0  0  0  0  0
   -3.4543   -1.0491    0.0384 H   0  0  0  0  0
   -1.4136   -2.4541    0.2168 H   0  0  0  0  0
    3.3372   -1.4316    0.1974 H   0  0  0  0  0
    2.9060    2.8740    1.1501 H   0  0  0  0  0
    4.9697    4.2171    1.0573 H   0  0  0  0  0
    6.9253    3.4190   -0.2446 H   0  0  0  0  0
    6.7998    1.2659   -1.4699 H   0  0  0  0  0
    4.7453   -0.0846   -1.4051 H   0  0  0  0  0
   -1.0062    2.4732   -0.3049 H   0  0  0  0  0
  1 17  1  0  0  0
  1  2  2  0  0  0
  1 18  1  0  0  0
  2  3  1  0  0  0
  2 19  1  0  0  0
  3  4  2  0  0  0
  3 20  1  0  0  0
  4 16  1  0  0  0
  4  5  1  0  0  0
  5  7  1  0  0  0
  5  6  2  0  0  0
  7  8  2  0  0  0
  7 21  1  0  0  0
  8 15  1  0  0  0
  8  9  1  0  0  0
  9 10  2  0  0  0
  9 14  1  0  0  0
 10 11  1  0  0  0
 10 22  1  0  0  0
 11 12  2  0  0  0
 11 23  1  0  0  0
 12 13  1  0  0  0
 12 24  1  0  0  0
 13 14  2  0  0  0
 13 25  1  0  0  0
 14 26  1  0  0  0
 15 16  1  0  0  0
 16 17  2  0  0  0
 17 27  1  0  0  0
M  END