259
 OpenBabel11300911563D

 22 22  0  0  0  0  0  0  0  0999 V2000
    0.9269    0.0723   -0.0040 O   0  0  0  0  0
    2.2933    0.0133   -0.0010 C   0  0  0  0  0
    2.9970   -1.2011   -0.0025 C   0  0  0  0  0
    4.4047   -1.1584   -0.0006 C   0  0  0  0  0
    5.1010    0.0546    0.0057 C   0  0  0  0  0
    4.3760    1.2486    0.0074 C   0  0  0  0  0
    6.6007    0.0882    0.0068 C   0  0  0  0  0
    2.3648   -2.5655   -0.0118 C   0  0  0  0  0
    2.9725    1.2428    0.0035 C   0  0  0  0  0
    2.2554    2.5646    0.0072 C   0  0  0  0  0
    0.5514   -0.8176   -0.0058 H   0  0  0  0  0
    4.9647   -2.0927   -0.0039 H   0  0  0  0  0
    4.9068    2.1993    0.0114 H   0  0  0  0  0
    7.0251   -0.9206    0.0242 H   0  0  0  0  0
    6.9649    0.6202    0.8909 H   0  0  0  0  0
    6.9662    0.5915   -0.8934 H   0  0  0  0  0
    1.2748   -2.5510    0.0130 H   0  0  0  0  0
    2.6983   -3.1335    0.8628 H   0  0  0  0  0
    2.6622   -3.1041   -0.9177 H   0  0  0  0  0
    1.1677    2.4595   -0.0126 H   0  0  0  0  0
    2.5452    3.1477   -0.8730 H   0  0  0  0  0
    2.5167    3.1268    0.9096 H   0  0  0  0  0
  1  2  1  0  0  0
  1 11  1  0  0  0
  2  3  2  0  0  0
  2  9  1  0  0  0
  3  4  1  0  0  0
  3  8  1  0  0  0
  4  5  2  0  0  0
  4 12  1  0  0  0
  5  6  1  0  0  0
  5  7  1  0  0  0
  6  9  2  0  0  0
  6 13  1  0  0  0
  7 14  1  0  0  0
  7 15  1  0  0  0
  7 16  1  0  0  0
  8 17  1  0  0  0
  8 18  1  0  0  0
  8 19  1  0  0  0
  9 10  1  0  0  0
 10 20  1  0  0  0
 10 21  1  0  0  0
 10 22  1  0  0  0
M  END