260
 OpenBabel11300911563D

 16 16  0  0  0  0  0  0  0  0999 V2000
    0.9488   -0.0960    0.1280 N   0  0  0  0  0
    2.1073   -0.0729    0.0543 C   0  0  0  0  0
    3.5406   -0.0461   -0.0366 C   0  0  0  0  0
    4.2484    1.1687   -0.1202 C   0  0  0  0  0
    5.6489    1.1332   -0.2121 C   0  0  0  0  0
    6.3324   -0.0840   -0.2167 C   0  0  0  0  0
    5.6278   -1.2817   -0.1312 C   0  0  0  0  0
    3.5390    2.4960   -0.1235 C   0  0  0  0  0
    4.2361   -1.2639   -0.0417 C   0  0  0  0  0
    6.2202    2.0571   -0.2812 H   0  0  0  0  0
    7.4176   -0.0960   -0.2877 H   0  0  0  0  0
    6.1618   -2.2289   -0.1351 H   0  0  0  0  0
    4.2491    3.3297   -0.1472 H   0  0  0  0  0
    2.9334    2.6084    0.7816 H   0  0  0  0  0
    2.8979    2.5813   -1.0068 H   0  0  0  0  0
    3.6957   -2.2069    0.0234 H   0  0  0  0  0
  1  2  3  0  0  0
  2  3  1  0  0  0
  3  4  2  0  0  0
  3  9  1  0  0  0
  4  5  1  0  0  0
  4  8  1  0  0  0
  5  6  2  0  0  0
  5 10  1  0  0  0
  6  7  1  0  0  0
  6 11  1  0  0  0
  7  9  2  0  0  0
  7 12  1  0  0  0
  8 13  1  0  0  0
  8 14  1  0  0  0
  8 15  1  0  0  0
  9 16  1  0  0  0
M  END