261
 OpenBabel11300911563D

 17 17  0  0  0  0  0  0  0  0999 V2000
    0.9464    0.0970    0.0209 C   0  0  0  0  0
    2.4465    0.0453   -0.0526 C   0  0  0  0  0
    3.1682    1.2512   -0.0762 C   0  0  0  0  0
    4.5627    1.2515   -0.1441 C   0  0  0  0  0
    5.2613    0.0482   -0.1896 C   0  0  0  0  0
    4.5643   -1.1584   -0.1671 C   0  0  0  0  0
    3.1629   -1.1654   -0.0993 C   0  0  0  0  0
    2.4743   -2.4786   -0.0784 C   0  0  0  0  0
    3.0864   -3.5400   -0.1185 O   0  0  0  0  0
    0.5795    1.1286    0.0489 H   0  0  0  0  0
    0.5928   -0.4006    0.9294 H   0  0  0  0  0
    0.5058   -0.3829   -0.8587 H   0  0  0  0  0
    2.6471    2.2060   -0.0417 H   0  0  0  0  0
    5.1055    2.1941   -0.1620 H   0  0  0  0  0
    6.3468    0.0477   -0.2426 H   0  0  0  0  0
    5.1162   -2.0954   -0.2035 H   0  0  0  0  0
    1.3748   -2.4729   -0.0250 H   0  0  0  0  0
  1  2  1  0  0  0
  1 10  1  0  0  0
  1 11  1  0  0  0
  1 12  1  0  0  0
  2  3  2  0  0  0
  2  7  1  0  0  0
  3  4  1  0  0  0
  3 13  1  0  0  0
  4  5  2  0  0  0
  4 14  1  0  0  0
  5  6  1  0  0  0
  5 15  1  0  0  0
  6  7  2  0  0  0
  6 16  1  0  0  0
  7  8  1  0  0  0
  8  9  2  0  0  0
  8 17  1  0  0  0
M  END