262
 OpenBabel11300911203D

 20 20  0  0  0  0  0  0  0  0999 V2000
    0.8985   -0.0194    0.0677 N   0  0  0  0  0
    0.3127    1.0708    0.1112 O   0  0  0  0  0
    0.3348   -1.1209    0.0454 O   0  0  0  0  0
    2.3679   -0.0061    0.0401 C   0  0  0  0  0
    3.0713   -1.2158   -0.0094 C   0  0  0  0  0
    4.4753   -1.1890   -0.0422 C   0  0  0  0  0
    5.1976   -2.4646   -0.0989 N   0  0  0  0  0
    6.4374   -2.4192   -0.1283 O   0  0  0  0  0
    4.5337   -3.5085   -0.1141 O   0  0  0  0  0
    5.1674    0.0357   -0.0229 C   0  0  0  0  0
    6.5328    0.1492   -0.0625 O   0  0  0  0  0
    4.4537    1.2462    0.0378 C   0  0  0  0  0
    5.1736    2.5683    0.0425 C   0  0  0  0  0
    3.0501    1.2183    0.0613 C   0  0  0  0  0
    2.5339   -2.1632   -0.0252 H   0  0  0  0  0
    6.9534   -0.7362   -0.0985 H   0  0  0  0  0
    5.9562    2.5786    0.8082 H   0  0  0  0  0
    4.4906    3.3944    0.2677 H   0  0  0  0  0
    5.6215    2.7550   -0.9387 H   0  0  0  0  0
    2.4981    2.1578    0.0960 H   0  0  0  0  0
  1  4  1  0  0  0
  1  3  2  0  0  0
  1  2  2  0  0  0
  4  5  2  0  0  0
  4 14  1  0  0  0
  5  6  1  0  0  0
  5 15  1  0  0  0
  6 10  2  0  0  0
  6  7  1  0  0  0
  7  9  2  0  0  0
  7  8  2  0  0  0
 10 12  1  0  0  0
 10 11  1  0  0  0
 11 16  1  0  0  0
 12 14  2  0  0  0
 12 13  1  0  0  0
 13 17  1  0  0  0
 13 18  1  0  0  0
 13 19  1  0  0  0
 14 20  1  0  0  0
M  END