264
 OpenBabel11300911563D

 20 19  0  0  0  0  0  0  0  0999 V2000
    5.5285   -0.2172    2.9051 O   0  0  0  0  0
    4.5701    0.1265    2.2309 C   0  0  0  0  0
    4.4236   -0.0411    0.8903 O   0  0  0  0  0
    5.4615   -0.6850    0.1064 C   0  0  0  0  0
    4.9305   -0.6651   -1.3351 C   0  0  0  0  0
    6.7725    0.1077    0.1559 C   0  0  0  0  0
    5.6568   -2.1429    0.5367 C   0  0  0  0  0
    3.3538    0.8030    2.7880 C   0  0  0  0  0
    3.9697   -1.1887   -1.4040 H   0  0  0  0  0
    5.6310   -1.1347   -2.0336 H   0  0  0  0  0
    4.7464    0.3631   -1.6683 H   0  0  0  0  0
    7.2440    0.0563    1.1419 H   0  0  0  0  0
    6.5936    1.1685   -0.0527 H   0  0  0  0  0
    7.4962   -0.2737   -0.5722 H   0  0  0  0  0
    6.0825   -2.2190    1.5417 H   0  0  0  0  0
    6.3296   -2.6729   -0.1460 H   0  0  0  0  0
    4.6978   -2.6724    0.5617 H   0  0  0  0  0
    2.4803    0.1598    2.6567 H   0  0  0  0  0
    3.2026    1.7645    2.2907 H   0  0  0  0  0
    3.4981    0.9855    3.8566 H   0  0  0  0  0
  1  2  2  0  0  0
  2  8  1  0  0  0
  2  3  1  0  0  0
  3  4  1  0  0  0
  4  7  1  0  0  0
  4  6  1  0  0  0
  4  5  1  0  0  0
  5  9  1  0  0  0
  5 10  1  0  0  0
  5 11  1  0  0  0
  6 12  1  0  0  0
  6 13  1  0  0  0
  6 14  1  0  0  0
  7 15  1  0  0  0
  7 16  1  0  0  0
  7 17  1  0  0  0
  8 18  1  0  0  0
  8 19  1  0  0  0
  8 20  1  0  0  0
M  END