266
 OpenBabel11300911563D

 22 22  0  0  0  0  0  0  0  0999 V2000
    1.4529    0.8317    0.4487 C   0  0  0  0  0
    2.8077    0.6295    0.0634 O   0  0  0  0  0
    3.5665    1.7483   -0.1406 C   0  0  0  0  0
    3.1372    3.0657   -0.0141 C   0  0  0  0  0
    4.0292    4.1174   -0.2548 C   0  0  0  0  0
    5.3632    3.8751   -0.6256 C   0  0  0  0  0
    6.2283    5.0759   -0.8574 C   0  0  0  0  0
    7.6705    4.9177   -1.2575 C   0  0  0  0  0
    5.7459    6.2014   -0.7152 O   0  0  0  0  0
    5.7840    2.5461   -0.7498 C   0  0  0  0  0
    7.0658    2.2344   -1.1056 O   0  0  0  0  0
    4.8904    1.4947   -0.5093 C   0  0  0  0  0
    0.9911   -0.1524    0.5732 H   0  0  0  0  0
    0.8970    1.3648   -0.3295 H   0  0  0  0  0
    1.3897    1.3535    1.4091 H   0  0  0  0  0
    2.1201    3.3160    0.2691 H   0  0  0  0  0
    3.6697    5.1410   -0.1496 H   0  0  0  0  0
    8.2314    4.4099   -0.4693 H   0  0  0  0  0
    8.1128    5.9106   -1.3914 H   0  0  0  0  0
    7.7484    4.3931   -2.2127 H   0  0  0  0  0
    7.1658    1.2676   -1.1434 H   0  0  0  0  0
    5.2094    0.4600   -0.6037 H   0  0  0  0  0
  1  2  1  0  0  0
  1 13  1  0  0  0
  1 14  1  0  0  0
  1 15  1  0  0  0
  2  3  1  0  0  0
  3  4  2  0  0  0
  3 12  1  0  0  0
  4  5  1  0  0  0
  4 16  1  0  0  0
  5  6  2  0  0  0
  5 17  1  0  0  0
  6 10  1  0  0  0
  6  7  1  0  0  0
  7  9  2  0  0  0
  7  8  1  0  0  0
  8 18  1  0  0  0
  8 19  1  0  0  0
  8 20  1  0  0  0
 10 12  2  0  0  0
 10 11  1  0  0  0
 11 21  1  0  0  0
 12 22  1  0  0  0
M  END