267
 OpenBabel11300911563D

 16 16  0  0  0  0  0  0  0  0999 V2000
    2.5481   -1.1279   -0.3203 O   0  0  0  0  0
    2.0391   -0.0659    0.0216 C   0  0  0  0  0
    2.7979    1.2041   -0.0468 C   0  0  0  0  0
    2.2586    2.4443    0.3072 C   0  0  0  0  0
    0.8739    2.5705    0.7067 N   0  0  0  0  0
    0.6510    3.0813    1.8108 O   0  0  0  0  0
    0.0179    2.1680   -0.0902 O   0  0  0  0  0
    3.0301    3.6161    0.2757 C   0  0  0  0  0
    4.3622    3.5455   -0.1285 C   0  0  0  0  0
    4.9144    2.3175   -0.4953 C   0  0  0  0  0
    4.1395    1.1535   -0.4532 C   0  0  0  0  0
    1.0077   -0.0447    0.4053 H   0  0  0  0  0
    2.6033    4.5765    0.5582 H   0  0  0  0  0
    4.9728    4.4459   -0.1599 H   0  0  0  0  0
    5.9551    2.2615   -0.8112 H   0  0  0  0  0
    4.5937    0.2034   -0.7343 H   0  0  0  0  0
  1  2  2  0  0  0
  2  3  1  0  0  0
  2 12  1  0  0  0
  3  4  2  0  0  0
  3 11  1  0  0  0
  4  8  1  0  0  0
  4  5  1  0  0  0
  5  7  2  0  0  0
  5  6  2  0  0  0
  8  9  2  0  0  0
  8 13  1  0  0  0
  9 10  1  0  0  0
  9 14  1  0  0  0
 10 11  2  0  0  0
 10 15  1  0  0  0
 11 16  1  0  0  0
M  END