268
 OpenBabel11300911203D

 16 16  0  0  0  0  0  0  0  0999 V2000
    2.7446   -1.0906   -0.0626 O   0  0  0  0  0
    2.1976   -0.0164    0.1502 C   0  0  0  0  0
    2.9104    1.2677   -0.0086 C   0  0  0  0  0
    2.2338    2.4646    0.2492 C   0  0  0  0  0
    2.9012    3.6849    0.1015 C   0  0  0  0  0
    4.2448    3.6965   -0.3044 C   0  0  0  0  0
    4.9466    4.9780   -0.4597 N   0  0  0  0  0
    6.1307    4.9467   -0.8222 O   0  0  0  0  0
    4.3109    6.0140   -0.2183 O   0  0  0  0  0
    4.9227    2.4969   -0.5629 C   0  0  0  0  0
    4.2502    1.2808   -0.4134 C   0  0  0  0  0
    1.1439    0.0385    0.4713 H   0  0  0  0  0
    1.1919    2.4620    0.5644 H   0  0  0  0  0
    2.3657    4.6110    0.3047 H   0  0  0  0  0
    5.9645    2.4904   -0.8783 H   0  0  0  0  0
    4.7719    0.3458   -0.6128 H   0  0  0  0  0
  1  2  2  0  0  0
  2  3  1  0  0  0
  2 12  1  0  0  0
  3  4  2  0  0  0
  3 11  1  0  0  0
  4  5  1  0  0  0
  4 13  1  0  0  0
  5  6  2  0  0  0
  5 14  1  0  0  0
  6 10  1  0  0  0
  6  7  1  0  0  0
  7  9  2  0  0  0
  7  8  2  0  0  0
 10 11  2  0  0  0
 10 15  1  0  0  0
 11 16  1  0  0  0
M  END