269
 OpenBabel11300911563D

 16 15  0  0  0  0  0  0  0  0999 V2000
    1.8665    0.5158    1.2229 O   0  0  0  0  0
    2.1794    0.0168    0.1419 C   0  0  0  0  0
    2.9825   -1.2758    0.0413 C   0  0  0  0  0
    3.8878   -1.4505    1.2575 C   0  0  0  0  0
    2.0351   -2.4598   -0.1087 C   0  0  0  0  0
    1.7421    0.6479   -1.1560 C   0  0  0  0  0
    3.6222   -1.2041   -0.8464 H   0  0  0  0  0
    3.3064   -1.5564    2.1802 H   0  0  0  0  0
    4.5464   -0.5836    1.3792 H   0  0  0  0  0
    4.5162   -2.3408    1.1494 H   0  0  0  0  0
    1.3578   -2.5375    0.7491 H   0  0  0  0  0
    2.5926   -3.3987   -0.1901 H   0  0  0  0  0
    1.4161   -2.3584   -1.0063 H   0  0  0  0  0
    1.2307    1.5926   -0.9504 H   0  0  0  0  0
    1.0548   -0.0189   -1.6812 H   0  0  0  0  0
    2.6174    0.8544   -1.7769 H   0  0  0  0  0
  1  2  2  0  0  0
  2  6  1  0  0  0
  2  3  1  0  0  0
  3  5  1  0  0  0
  3  4  1  0  0  0
  3  7  1  0  0  0
  4  8  1  0  0  0
  4  9  1  0  0  0
  4 10  1  0  0  0
  5 11  1  0  0  0
  5 12  1  0  0  0
  5 13  1  0  0  0
  6 14  1  0  0  0
  6 15  1  0  0  0
  6 16  1  0  0  0
M  END