270
 OpenBabel11300911563D

 17 17  0  0  0  0  0  0  0  0999 V2000
    0.7666    0.1983   -0.2323 O   0  0  0  0  0
    2.1229    0.1386   -0.0618 C   0  0  0  0  0
    2.9406    1.2604    0.1492 C   0  0  0  0  0
    4.3367    1.1170    0.2838 C   0  0  0  0  0
    4.9273   -0.1469    0.2060 C   0  0  0  0  0
    4.1316   -1.2709    0.0014 C   0  0  0  0  0
    2.7440   -1.1135   -0.1233 C   0  0  0  0  0
    1.9504   -2.3099   -0.3158 N   0  0  0  0  0
    2.1160   -2.9222   -1.3793 O   0  0  0  0  0
    1.2339   -2.6713    0.6273 O   0  0  0  0  0
    2.3694    2.6095    0.2328 N   0  0  0  0  0
    3.1426    3.5603    0.4070 O   0  0  0  0  0
    1.1376    2.7140    0.1234 O   0  0  0  0  0
    0.4364    1.1183   -0.1370 H   0  0  0  0  0
    4.9792    1.9823    0.4464 H   0  0  0  0  0
    6.0064   -0.2521    0.3065 H   0  0  0  0  0
    4.5879   -2.2577   -0.0581 H   0  0  0  0  0
  1  2  1  0  0  0
  1 14  1  0  0  0
  2  3  2  0  0  0
  2  7  1  0  0  0
  3  4  1  0  0  0
  3 11  1  0  0  0
  4  5  2  0  0  0
  4 15  1  0  0  0
  5  6  1  0  0  0
  5 16  1  0  0  0
  6  7  2  0  0  0
  6 17  1  0  0  0
  7  8  1  0  0  0
  8 10  2  0  0  0
  8  9  2  0  0  0
 11 13  2  0  0  0
 11 12  2  0  0  0
M  END