271
 OpenBabel11300911203D

 12 12  0  0  0  0  0  0  0  0999 V2000
   -0.6492   -1.2599   -0.0398 C   0  0  0  0  0
   -1.4143   -0.0882   -0.0415 C   0  0  0  0  0
   -0.7762    1.1574   -0.0147 C   0  0  0  0  0
    0.6172    1.2345    0.0137 C   0  0  0  0  0
    1.3786    0.0681    0.0154 C   0  0  0  0  0
   -3.3132   -0.0885   -0.0791 Br  0  0  0  0  0
    0.7478   -1.1767   -0.0112 C   0  0  0  0  0
   -1.4133   -2.9985   -0.0747 Br  0  0  0  0  0
   -1.3575    2.0769   -0.0156 H   0  0  0  0  0
    1.1075    2.2049    0.0345 H   0  0  0  0  0
    2.4644    0.1267    0.0376 H   0  0  0  0  0
    1.3557   -2.0785   -0.0095 H   0  0  0  0  0
  1  2  2  0  0  0
  1  7  1  0  0  0
  1  8  1  0  0  0
  2  3  1  0  0  0
  2  6  1  0  0  0
  3  4  2  0  0  0
  3  9  1  0  0  0
  4  5  1  0  0  0
  4 10  1  0  0  0
  5  7  2  0  0  0
  5 11  1  0  0  0
  7 12  1  0  0  0
M  END