272
 OpenBabel11300911563D

 21 21  0  0  0  0  0  0  0  0999 V2000
    2.4618   -0.9445   -0.7638 C   0  0  0  0  0
    2.7968   -0.0987    0.2202 C   0  0  0  0  0
    3.3068    1.2961    0.0126 C   0  0  0  0  0
    4.7470    1.2402    0.1942 N   0  0  0  0  0
    5.4987    2.3987   -0.0439 C   0  0  0  0  0
    5.0133    3.6931    0.1756 C   0  0  0  0  0
    5.8332    4.8132   -0.0034 C   0  0  0  0  0
    7.1631    4.6544   -0.3814 C   0  0  0  0  0
    7.6767    3.3749   -0.5642 C   0  0  0  0  0
    6.8540    2.2601   -0.3796 C   0  0  0  0  0
    2.1003   -1.9429   -0.5377 H   0  0  0  0  0
    2.5546   -0.6677   -1.8095 H   0  0  0  0  0
    2.6973   -0.4201    1.2547 H   0  0  0  0  0
    2.8294    1.9524    0.7482 H   0  0  0  0  0
    3.0541    1.6570   -0.9919 H   0  0  0  0  0
    5.1499    0.4382   -0.2846 H   0  0  0  0  0
    3.9921    3.8589    0.5035 H   0  0  0  0  0
    5.4325    5.8087    0.1678 H   0  0  0  0  0
    7.8011    5.5236   -0.5154 H   0  0  0  0  0
    8.7191    3.2391   -0.8389 H   0  0  0  0  0
    7.2844    1.2698   -0.5050 H   0  0  0  0  0
  1  2  2  0  0  0
  1 11  1  0  0  0
  1 12  1  0  0  0
  2  3  1  0  0  0
  2 13  1  0  0  0
  3  4  1  0  0  0
  3 14  1  0  0  0
  3 15  1  0  0  0
  4  5  1  0  0  0
  4 16  1  0  0  0
  5  6  2  0  0  0
  5 10  1  0  0  0
  6  7  1  0  0  0
  6 17  1  0  0  0
  7  8  2  0  0  0
  7 18  1  0  0  0
  8  9  1  0  0  0
  8 19  1  0  0  0
  9 10  2  0  0  0
  9 20  1  0  0  0
 10 21  1  0  0  0
M  END