273
 OpenBabel11300911563D

 20 20  0  0  0  0  0  0  0  0999 V2000
    0.9341    0.0429    0.3158 N   0  0  0  0  0
    2.2996    0.0486    0.0043 C   0  0  0  0  0
    3.0044    1.2525   -0.0502 C   0  0  0  0  0
    4.3899    1.2631   -0.2397 C   0  0  0  0  0
    5.1027    0.0624   -0.3282 C   0  0  0  0  0
    4.4044   -1.1448   -0.2168 C   0  0  0  0  0
    6.5933    0.0692   -0.5466 C   0  0  0  0  0
    6.9472    0.0542   -2.0258 C   0  0  0  0  0
    3.0189   -1.1474   -0.0275 C   0  0  0  0  0
    0.4473    0.8795    0.0104 H   0  0  0  0  0
    0.4570   -0.8049    0.0265 H   0  0  0  0  0
    2.4796    2.1984    0.0517 H   0  0  0  0  0
    4.9088    2.2165   -0.3033 H   0  0  0  0  0
    4.9349   -2.0931   -0.2624 H   0  0  0  0  0
    7.0435   -0.7985   -0.0491 H   0  0  0  0  0
    7.0328    0.9536   -0.0695 H   0  0  0  0  0
    6.5512   -0.8394   -2.5202 H   0  0  0  0  0
    8.0342    0.0595   -2.1550 H   0  0  0  0  0
    6.5400    0.9310   -2.5407 H   0  0  0  0  0
    2.5055   -2.0975    0.0923 H   0  0  0  0  0
  1  2  1  0  0  0
  1 10  1  0  0  0
  1 11  1  0  0  0
  2  3  2  0  0  0
  2  9  1  0  0  0
  3  4  1  0  0  0
  3 12  1  0  0  0
  4  5  2  0  0  0
  4 13  1  0  0  0
  5  6  1  0  0  0
  5  7  1  0  0  0
  6  9  2  0  0  0
  6 14  1  0  0  0
  7  8  1  0  0  0
  7 15  1  0  0  0
  7 16  1  0  0  0
  8 17  1  0  0  0
  8 18  1  0  0  0
  8 19  1  0  0  0
  9 20  1  0  0  0
M  END