275
 OpenBabel11300911563D

 19 18  0  0  0  0  0  0  0  0999 V2000
    1.7396    0.1119    0.7742 O   0  0  0  0  0
    2.8699   -0.1720    0.3812 C   0  0  0  0  0
    3.2902   -1.5902    0.0374 C   0  0  0  0  0
    2.1647   -2.6017    0.2467 C   0  0  0  0  0
    2.6081   -4.0147   -0.1305 C   0  0  0  0  0
    1.4945   -5.0254    0.0917 C   0  0  0  0  0
    3.9285    0.8880    0.2315 C   0  0  0  0  0
    4.1472   -1.8511    0.6684 H   0  0  0  0  0
    3.6115   -1.6010   -1.0099 H   0  0  0  0  0
    1.2939   -2.3156   -0.3560 H   0  0  0  0  0
    1.8426   -2.5819    1.2952 H   0  0  0  0  0
    3.4811   -4.3038    0.4663 H   0  0  0  0  0
    2.9121   -4.0398   -1.1836 H   0  0  0  0  0
    1.1987   -5.0568    1.1450 H   0  0  0  0  0
    1.8283   -6.0266   -0.1973 H   0  0  0  0  0
    0.6123   -4.7754   -0.5059 H   0  0  0  0  0
    3.4870    1.8756    0.3915 H   0  0  0  0  0
    4.3456    0.8525   -0.7785 H   0  0  0  0  0
    4.7167    0.7248    0.9707 H   0  0  0  0  0
  1  2  2  0  0  0
  2  7  1  0  0  0
  2  3  1  0  0  0
  3  4  1  0  0  0
  3  8  1  0  0  0
  3  9  1  0  0  0
  4  5  1  0  0  0
  4 10  1  0  0  0
  4 11  1  0  0  0
  5  6  1  0  0  0
  5 12  1  0  0  0
  5 13  1  0  0  0
  6 14  1  0  0  0
  6 15  1  0  0  0
  6 16  1  0  0  0
  7 17  1  0  0  0
  7 18  1  0  0  0
  7 19  1  0  0  0
M  END