279
 OpenBabel11300911573D

 24 23  0  0  0  0  0  0  0  0999 V2000
    1.3944    0.1278   -0.6165 O   0  0  0  0  0
    2.8173    0.2743   -0.6318 C   0  0  0  0  0
    3.3894   -0.6660   -1.7216 C   0  0  0  0  0
    3.0520   -2.1288   -1.4033 C   0  0  0  0  0
    2.8838   -0.3303   -3.1284 C   0  0  0  0  0
    3.1764    1.7726   -0.8005 C   0  0  0  0  0
    2.5834    2.6183    0.3356 C   0  0  0  0  0
    4.6879    2.0059   -0.8596 C   0  0  0  0  0
    1.0729    0.4446    0.2442 H   0  0  0  0  0
    3.1867   -0.0709    0.3429 H   0  0  0  0  0
    4.4825   -0.5876   -1.7233 H   0  0  0  0  0
    1.9726   -2.3120   -1.4286 H   0  0  0  0  0
    3.4216   -2.4045   -0.4100 H   0  0  0  0  0
    3.5222   -2.8004   -2.1299 H   0  0  0  0  0
    1.7919   -0.3866   -3.1899 H   0  0  0  0  0
    3.2953   -1.0315   -3.8631 H   0  0  0  0  0
    3.1920    0.6740   -3.4336 H   0  0  0  0  0
    2.7277    2.1481   -1.7285 H   0  0  0  0  0
    2.9263    2.2642    1.3135 H   0  0  0  0  0
    1.4894    2.5898    0.3246 H   0  0  0  0  0
    2.8780    3.6686    0.2338 H   0  0  0  0  0
    5.1877    1.5833    0.0181 H   0  0  0  0  0
    4.9168    3.0765   -0.8948 H   0  0  0  0  0
    5.1279    1.5573   -1.7550 H   0  0  0  0  0
  1  2  1  0  0  0
  1  9  1  0  0  0
  2  6  1  0  0  0
  2  3  1  0  0  0
  2 10  1  0  0  0
  3  5  1  0  0  0
  3  4  1  0  0  0
  3 11  1  0  0  0
  4 12  1  0  0  0
  4 13  1  0  0  0
  4 14  1  0  0  0
  5 15  1  0  0  0
  5 16  1  0  0  0
  5 17  1  0  0  0
  6  8  1  0  0  0
  6  7  1  0  0  0
  6 18  1  0  0  0
  7 19  1  0  0  0
  7 20  1  0  0  0
  7 21  1  0  0  0
  8 22  1  0  0  0
  8 23  1  0  0  0
  8 24  1  0  0  0
M  END