281
 OpenBabel11300911203D

 13 13  0  0  0  0  0  0  0  0999 V2000
    0.9629    0.0076   -0.0041 O   0  0  0  0  0
    2.3383    0.0128   -0.0012 C   0  0  0  0  0
    3.0502   -1.1948    0.0006 C   0  0  0  0  0
    4.4554   -1.1789    0.0037 C   0  0  0  0  0
    5.1407    0.0586    0.0050 C   0  0  0  0  0
    4.4140    1.2732    0.0031 C   0  0  0  0  0
    5.3313    2.9600    0.0048 Br  0  0  0  0  0
    7.0628    0.0887    0.0092 Br  0  0  0  0  0
    5.4212   -2.8370    0.0061 Br  0  0  0  0  0
    2.0354   -2.8157   -0.0014 Br  0  0  0  0  0
    3.0074    1.2449    0.0001 C   0  0  0  0  0
    1.9540    2.8421   -0.0025 Br  0  0  0  0  0
    0.6511   -0.9164   -0.0045 H   0  0  0  0  0
  1  2  1  0  0  0
  1 13  1  0  0  0
  2  3  2  0  0  0
  2 11  1  0  0  0
  3  4  1  0  0  0
  3 10  1  0  0  0
  4  5  2  0  0  0
  4  9  1  0  0  0
  5  6  1  0  0  0
  5  8  1  0  0  0
  6 11  2  0  0  0
  6  7  1  0  0  0
 11 12  1  0  0  0
M  END