283
 OpenBabel11300911203D

 13 13  0  0  0  0  0  0  0  0999 V2000
    0.9350    0.0106   -0.0036 O   0  0  0  0  0
    2.3047    0.0134   -0.0005 C   0  0  0  0  0
    3.0287   -1.1855    0.0001 C   0  0  0  0  0
    4.4260   -1.1685    0.0032 C   0  0  0  0  0
    5.0970    0.0544    0.0056 C   0  0  0  0  0
    4.3881    1.2560    0.0051 C   0  0  0  0  0
    7.1766    0.0863    0.0100 I   0  0  0  0  0
    2.0598   -3.0395   -0.0036 I   0  0  0  0  0
    2.9898    1.2336    0.0020 C   0  0  0  0  0
    1.9807    3.0682    0.0012 I   0  0  0  0  0
    0.6333   -0.9150   -0.0051 H   0  0  0  0  0
    4.9876   -2.0997    0.0036 H   0  0  0  0  0
    4.9201    2.2042    0.0070 H   0  0  0  0  0
  1  2  1  0  0  0
  1 11  1  0  0  0
  2  3  2  0  0  0
  2  9  1  0  0  0
  3  4  1  0  0  0
  3  8  1  0  0  0
  4  5  2  0  0  0
  4 12  1  0  0  0
  5  6  1  0  0  0
  5  7  1  0  0  0
  6  9  2  0  0  0
  6 13  1  0  0  0
  9 10  1  0  0  0
M  END