285
 OpenBabel11300911573D

 17 17  0  0  0  0  0  0  0  0999 V2000
    0.9768   -0.0376    0.3054 N   0  0  0  0  0
    2.3506   -0.0290   -0.0043 C   0  0  0  0  0
    3.0920    1.1638   -0.0702 C   0  0  0  0  0
    4.4783    1.1432   -0.2519 C   0  0  0  0  0
    5.1615   -0.0755   -0.3280 C   0  0  0  0  0
    4.4355   -1.2660   -0.2105 C   0  0  0  0  0
    6.6472   -0.1182   -0.5265 C   0  0  0  0  0
    2.2998    2.6996    0.0322 Cl  0  0  0  0  0
    3.0490   -1.2403   -0.0299 C   0  0  0  0  0
    0.5203    0.8377    0.0562 H   0  0  0  0  0
    0.4808   -0.8515   -0.0425 H   0  0  0  0  0
    5.0244    2.0808   -0.3245 H   0  0  0  0  0
    4.9484   -2.2252   -0.2438 H   0  0  0  0  0
    7.0816    0.8868   -0.5284 H   0  0  0  0  0
    6.8848   -0.5911   -1.4847 H   0  0  0  0  0
    7.1208   -0.6845    0.2821 H   0  0  0  0  0
    2.5164   -2.1798    0.0950 H   0  0  0  0  0
  1  2  1  0  0  0
  1 10  1  0  0  0
  1 11  1  0  0  0
  2  3  2  0  0  0
  2  9  1  0  0  0
  3  4  1  0  0  0
  3  8  1  0  0  0
  4  5  2  0  0  0
  4 12  1  0  0  0
  5  6  1  0  0  0
  5  7  1  0  0  0
  6  9  2  0  0  0
  6 13  1  0  0  0
  7 14  1  0  0  0
  7 15  1  0  0  0
  7 16  1  0  0  0
  9 17  1  0  0  0
M  END