286
 OpenBabel11300911203D

 23 23  0  0  0  0  0  0  0  0999 V2000
    0.1326    0.1273    0.2484 O   0  0  0  0  0
    1.3137    0.1115    0.6316 N   0  0  0  0  0
    1.8432   -0.8244    1.2498 O   0  0  0  0  0
    2.1534    1.2612    0.2998 C   0  0  0  0  0
    1.6015    2.5550    0.2354 C   0  0  0  0  0
    0.2936    2.8722    0.6418 N   0  0  0  0  0
    2.4860    3.6099   -0.0159 C   0  0  0  0  0
    3.8378    3.3718   -0.2909 C   0  0  0  0  0
    4.3557    2.0761   -0.2821 C   0  0  0  0  0
    5.6885    1.9912   -0.5693 O   0  0  0  0  0
    6.2646    0.6868   -0.6280 C   0  0  0  0  0
    7.7326    0.8382   -0.9839 C   0  0  0  0  0
    3.5127    1.0129    0.0246 C   0  0  0  0  0
   -0.0660    3.7405    0.2551 H   0  0  0  0  0
   -0.3711    2.1049    0.5076 H   0  0  0  0  0
    2.1323    4.6387    0.0023 H   0  0  0  0  0
    4.4970    4.2122   -0.5010 H   0  0  0  0  0
    5.7683    0.0875   -1.4001 H   0  0  0  0  0
    6.1826    0.1902    0.3454 H   0  0  0  0  0
    7.8466    1.3599   -1.9401 H   0  0  0  0  0
    8.2198   -0.1386   -1.0536 H   0  0  0  0  0
    8.2516    1.4387   -0.2292 H   0  0  0  0  0
    3.8852   -0.0060    0.0644 H   0  0  0  0  0
  1  2  2  0  0  0
  2  4  1  0  0  0
  2  3  2  0  0  0
  4  5  2  0  0  0
  4 13  1  0  0  0
  5  7  1  0  0  0
  5  6  1  0  0  0
  6 14  1  0  0  0
  6 15  1  0  0  0
  7  8  2  0  0  0
  7 16  1  0  0  0
  8  9  1  0  0  0
  8 17  1  0  0  0
  9 13  2  0  0  0
  9 10  1  0  0  0
 10 11  1  0  0  0
 11 12  1  0  0  0
 11 18  1  0  0  0
 11 19  1  0  0  0
 12 20  1  0  0  0
 12 21  1  0  0  0
 12 22  1  0  0  0
 13 23  1  0  0  0
M  END