291
 OpenBabel11300911203D

 22 22  0  0  0  0  0  0  0  0999 V2000
   -0.9700    0.4746   -2.4797 O   0  0  0  0  0
    0.2660    0.0319   -1.9070 C   0  0  0  0  0
    0.0376   -1.0695   -0.8561 C   0  0  0  0  0
   -0.9040   -0.6887    0.2263 N   0  0  0  0  0
   -2.1299   -0.1543   -0.4131 C   0  0  0  0  0
   -0.2681    0.2624    1.1658 C   0  0  0  0  0
   -1.1272    0.5165    2.4150 C   0  0  0  0  0
   -1.5807   -0.7218    2.9574 O   0  0  0  0  0
   -1.8678    0.9368   -1.4640 C   0  0  0  0  0
    0.7945    0.8931   -1.4833 H   0  0  0  0  0
    0.8822   -0.3609   -2.7220 H   0  0  0  0  0
    0.9964   -1.3953   -0.4359 H   0  0  0  0  0
   -0.3860   -1.9472   -1.3616 H   0  0  0  0  0
   -2.8447    0.2040    0.3340 H   0  0  0  0  0
   -2.6243   -0.9985   -0.9121 H   0  0  0  0  0
   -0.0062    1.2163    0.6972 H   0  0  0  0  0
    0.6661   -0.1944    1.5170 H   0  0  0  0  0
   -2.0001    1.1348    2.1844 H   0  0  0  0  0
   -0.5420    1.0331    3.1821 H   0  0  0  0  0
   -1.6776   -1.3145    2.1834 H   0  0  0  0  0
   -2.8084    1.2051   -1.9554 H   0  0  0  0  0
   -1.4632    1.8484   -1.0107 H   0  0  0  0  0
  1  2  1  0  0  0
  1  9  1  0  0  0
  2  3  1  0  0  0
  2 10  1  0  0  0
  2 11  1  0  0  0
  3  4  1  0  0  0
  3 12  1  0  0  0
  3 13  1  0  0  0
  4  5  1  0  0  0
  4  6  1  0  0  0
  5  9  1  0  0  0
  5 14  1  0  0  0
  5 15  1  0  0  0
  6  7  1  0  0  0
  6 16  1  0  0  0
  6 17  1  0  0  0
  7  8  1  0  0  0
  7 18  1  0  0  0
  7 19  1  0  0  0
  8 20  1  0  0  0
  9 21  1  0  0  0
  9 22  1  0  0  0
M  END