292
 OpenBabel11300911203D

 15 15  0  0  0  0  0  0  0  0999 V2000
    0.8559   -0.6249    0.0024 O   0  0  0  0  0
   -0.4423   -1.0369    0.0033 C   0  0  0  0  0
   -0.6630   -2.4957    0.0057 C   0  0  0  0  0
   -1.2855    0.0527    0.0015 C   0  0  0  0  0
   -0.4547    1.1992   -0.0005 C   0  0  0  0  0
    0.8439    0.7372    0.0003 C   0  0  0  0  0
    2.1575    1.4106   -0.0009 C   0  0  0  0  0
   -1.7317   -2.7314    0.0174 H   0  0  0  0  0
   -0.2039   -2.9513    0.8884 H   0  0  0  0  0
   -0.2233   -2.9509   -0.8871 H   0  0  0  0  0
   -2.3660    0.0233    0.0015 H   0  0  0  0  0
   -0.7625    2.2352   -0.0023 H   0  0  0  0  0
    2.9780    0.6865    0.0101 H   0  0  0  0  0
    2.2582    2.0515    0.8803 H   0  0  0  0  0
    2.2656    2.0331   -0.8943 H   0  0  0  0  0
  1  2  1  0  0  0
  1  6  1  0  0  0
  2  4  2  0  0  0
  2  3  1  0  0  0
  3  8  1  0  0  0
  3  9  1  0  0  0
  3 10  1  0  0  0
  4  5  1  0  0  0
  4 11  1  0  0  0
  5  6  2  0  0  0
  5 12  1  0  0  0
  6  7  1  0  0  0
  7 13  1  0  0  0
  7 14  1  0  0  0
  7 15  1  0  0  0
M  END