293
 OpenBabel11300911573D

 17 16  0  0  0  0  0  0  0  0999 V2000
    4.4566   -1.1395    0.0942 Cl  0  0  0  0  0
    2.9375   -0.2294    0.2575 C   0  0  0  0  0
    3.0628    1.1930   -0.2806 C   0  0  0  0  0
    4.0165    2.0680    0.5387 C   0  0  0  0  0
    4.0306    3.5084    0.0147 C   0  0  0  0  0
    5.0194    4.4083    0.7500 C   0  0  0  0  0
    4.5452    4.6725    2.4442 Cl  0  0  0  0  0
    2.6552   -0.2291    1.3149 H   0  0  0  0  0
    2.1711   -0.7763   -0.3008 H   0  0  0  0  0
    2.0651    1.6497   -0.2713 H   0  0  0  0  0
    3.3873    1.1674   -1.3281 H   0  0  0  0  0
    5.0333    1.6625    0.4958 H   0  0  0  0  0
    3.7043    2.0512    1.5889 H   0  0  0  0  0
    3.0225    3.9366    0.0743 H   0  0  0  0  0
    4.3049    3.4961   -1.0477 H   0  0  0  0  0
    5.0621    5.3902    0.2698 H   0  0  0  0  0
    6.0257    3.9794    0.7435 H   0  0  0  0  0
  1  2  1  0  0  0
  2  3  1  0  0  0
  2  8  1  0  0  0
  2  9  1  0  0  0
  3  4  1  0  0  0
  3 10  1  0  0  0
  3 11  1  0  0  0
  4  5  1  0  0  0
  4 12  1  0  0  0
  4 13  1  0  0  0
  5  6  1  0  0  0
  5 14  1  0  0  0
  5 15  1  0  0  0
  6  7  1  0  0  0
  6 16  1  0  0  0
  6 17  1  0  0  0
M  END