294
 OpenBabel11300911573D

 23 22  0  0  0  0  0  0  0  0999 V2000
    0.9830   -0.0256   -0.0084 Br  0  0  0  0  0
    2.9287   -0.0414    0.0364 C   0  0  0  0  0
    3.4558    1.3828   -0.0092 C   0  0  0  0  0
    4.9854    1.4046    0.0150 C   0  0  0  0  0
    5.5204    2.8369   -0.0130 C   0  0  0  0  0
    7.0500    2.8620   -0.0044 C   0  0  0  0  0
    7.5810    4.2951   -0.0110 C   0  0  0  0  0
    9.1006    4.3266   -0.0138 C   0  0  0  0  0
    3.2568   -0.6280   -0.8264 H   0  0  0  0  0
    3.2161   -0.5551    0.9584 H   0  0  0  0  0
    3.0671    1.9531    0.8438 H   0  0  0  0  0
    3.0971    1.8866   -0.9153 H   0  0  0  0  0
    5.3735    0.8494   -0.8477 H   0  0  0  0  0
    5.3460    0.8956    0.9165 H   0  0  0  0  0
    5.1392    3.3876    0.8559 H   0  0  0  0  0
    5.1508    3.3507   -0.9087 H   0  0  0  0  0
    7.4305    2.3239   -0.8815 H   0  0  0  0  0
    7.4219    2.3361    0.8835 H   0  0  0  0  0
    7.2128    4.8320    0.8703 H   0  0  0  0  0
    7.2090    4.8267   -0.8940 H   0  0  0  0  0
    9.5063    3.8258    0.8716 H   0  0  0  0  0
    9.4588    5.3612   -0.0127 H   0  0  0  0  0
    9.5020    3.8296   -0.9037 H   0  0  0  0  0
  1  2  1  0  0  0
  2  3  1  0  0  0
  2  9  1  0  0  0
  2 10  1  0  0  0
  3  4  1  0  0  0
  3 11  1  0  0  0
  3 12  1  0  0  0
  4  5  1  0  0  0
  4 13  1  0  0  0
  4 14  1  0  0  0
  5  6  1  0  0  0
  5 15  1  0  0  0
  5 16  1  0  0  0
  6  7  1  0  0  0
  6 17  1  0  0  0
  6 18  1  0  0  0
  7  8  1  0  0  0
  7 19  1  0  0  0
  7 20  1  0  0  0
  8 21  1  0  0  0
  8 22  1  0  0  0
  8 23  1  0  0  0
M  END