296
 OpenBabel11300911573D

 12 12  0  0  0  0  0  0  0  0999 V2000
    0.0278   -1.3963    0.0590 C   0  0  0  0  0
    1.2522   -0.7073    0.0304 C   0  0  0  0  0
    1.2553    0.6998   -0.0294 C   0  0  0  0  0
    0.0344    1.3949   -0.0596 C   0  0  0  0  0
   -1.1765    0.6978   -0.0306 C   0  0  0  0  0
   -0.0565    3.1209   -0.1330 Cl  0  0  0  0  0
    2.7542    1.5809   -0.0661 Cl  0  0  0  0  0
    2.7467   -1.5951    0.0689 Cl  0  0  0  0  0
   -1.1799   -0.6940    0.0285 C   0  0  0  0  0
   -0.0711   -3.1223    0.1323 Cl  0  0  0  0  0
   -2.1230    1.2352   -0.0540 H   0  0  0  0  0
   -2.1287   -1.2269    0.0506 H   0  0  0  0  0
  1  2  2  0  0  0
  1  9  1  0  0  0
  1 10  1  0  0  0
  2  3  1  0  0  0
  2  8  1  0  0  0
  3  4  2  0  0  0
  3  7  1  0  0  0
  4  5  1  0  0  0
  4  6  1  0  0  0
  5  9  2  0  0  0
  5 11  1  0  0  0
  9 12  1  0  0  0
M  END