297
 OpenBabel11300911203D

 14 14  0  0  0  0  0  0  0  0999 V2000
    0.9795    0.0376   -0.2244 N   0  0  0  0  0
    2.3626   -0.0066    0.0347 C   0  0  0  0  0
    3.0768    1.1954    0.0437 C   0  0  0  0  0
    4.4663    1.1967    0.1669 C   0  0  0  0  0
    5.1668   -0.0094    0.2445 C   0  0  0  0  0
    6.8877    0.0897    0.3985 Cl  0  0  0  0  0
    4.4814   -1.2310    0.1858 C   0  0  0  0  0
    5.3570   -2.7300    0.2615 Cl  0  0  0  0  0
    3.0804   -1.2238    0.0602 C   0  0  0  0  0
    2.1760   -2.7098   -0.0298 Cl  0  0  0  0  0
    0.5021   -0.8296    0.0180 H   0  0  0  0  0
    0.5043    0.8588    0.1370 H   0  0  0  0  0
    2.5535    2.1445   -0.0506 H   0  0  0  0  0
    4.9987    2.1453    0.1876 H   0  0  0  0  0
  1  2  1  0  0  0
  1 11  1  0  0  0
  1 12  1  0  0  0
  2  9  1  0  0  0
  2  3  2  0  0  0
  3  4  1  0  0  0
  3 13  1  0  0  0
  4  5  2  0  0  0
  4 14  1  0  0  0
  5  7  1  0  0  0
  5  6  1  0  0  0
  7  9  2  0  0  0
  7  8  1  0  0  0
  9 10  1  0  0  0
M  END