300
 OpenBabel11300911203D

  9  8  0  0  0  0  0  0  0  0999 V2000
    1.5555   -0.2576   -1.3187 O   0  0  0  0  0
    2.3636   -0.0573   -0.4102 C   0  0  0  0  0
    2.7247   -1.1099    0.3855 N   0  0  0  0  0
    3.0007    1.3136   -0.1476 C   0  0  0  0  0
    1.7159    2.4920    0.1986 Cl  0  0  0  0  0
    4.1548    1.2701    1.2082 Cl  0  0  0  0  0
    2.2708   -2.0022    0.2322 H   0  0  0  0  0
    3.3154   -0.9923    1.2010 H   0  0  0  0  0
    3.5434    1.6280   -1.0430 H   0  0  0  0  0
  1  2  2  0  0  0
  2  4  1  0  0  0
  2  3  1  0  0  0
  3  7  1  0  0  0
  3  8  1  0  0  0
  4  6  1  0  0  0
  4  5  1  0  0  0
  4  9  1  0  0  0
M  END