302
 OpenBabel11300911203D

 31 30  0  0  0  0  0  0  0  0999 V2000
    1.9380    0.6007    1.0650 O   0  0  0  0  0
    2.2459    0.0584    0.0034 C   0  0  0  0  0
    2.9978   -1.2542   -0.0211 C   0  0  0  0  0
    2.0270   -2.4290    0.0011 C   0  0  0  0  0
    2.7703   -3.7648   -0.0099 C   0  0  0  0  0
    1.7967   -4.9444    0.0099 C   0  0  0  0  0
    2.5420   -6.2801    0.0042 C   0  0  0  0  0
    1.5700   -7.4611    0.0085 C   0  0  0  0  0
    2.3167   -8.7949    0.0219 C   0  0  0  0  0
    1.3553   -9.9726    0.0143 C   0  0  0  0  0
    1.8536    0.6513   -1.3240 C   0  0  0  0  0
    3.6644   -1.2810    0.8486 H   0  0  0  0  0
    3.6347   -1.2822   -0.9122 H   0  0  0  0  0
    1.3548   -2.3725   -0.8637 H   0  0  0  0  0
    1.3924   -2.3648    0.8940 H   0  0  0  0  0
    3.4353   -3.8223    0.8605 H   0  0  0  0  0
    3.4022   -3.8256   -0.9043 H   0  0  0  0  0
    1.1346   -4.8888   -0.8627 H   0  0  0  0  0
    1.1619   -4.8823    0.9022 H   0  0  0  0  0
    3.1960   -6.3388    0.8828 H   0  0  0  0  0
    3.1854   -6.3385   -0.8822 H   0  0  0  0  0
    0.9253   -7.4092   -0.8774 H   0  0  0  0  0
    0.9169   -7.3974    0.8875 H   0  0  0  0  0
    2.9528   -8.8558    0.9127 H   0  0  0  0  0
    2.9750   -8.8625   -0.8521 H   0  0  0  0  0
    0.6979   -9.9484    0.8892 H   0  0  0  0  0
    1.9110  -10.9153    0.0328 H   0  0  0  0  0
    0.7315   -9.9636   -0.8851 H   0  0  0  0  0
    1.3157    1.5897   -1.1630 H   0  0  0  0  0
    1.2018   -0.0413   -1.8613 H   0  0  0  0  0
    2.7514    0.8580   -1.9118 H   0  0  0  0  0
  1  2  2  0  0  0
  2 11  1  0  0  0
  2  3  1  0  0  0
  3  4  1  0  0  0
  3 12  1  0  0  0
  3 13  1  0  0  0
  4  5  1  0  0  0
  4 14  1  0  0  0
  4 15  1  0  0  0
  5  6  1  0  0  0
  5 16  1  0  0  0
  5 17  1  0  0  0
  6  7  1  0  0  0
  6 18  1  0  0  0
  6 19  1  0  0  0
  7  8  1  0  0  0
  7 20  1  0  0  0
  7 21  1  0  0  0
  8  9  1  0  0  0
  8 22  1  0  0  0
  8 23  1  0  0  0
  9 10  1  0  0  0
  9 24  1  0  0  0
  9 25  1  0  0  0
 10 26  1  0  0  0
 10 27  1  0  0  0
 10 28  1  0  0  0
 11 29  1  0  0  0
 11 30  1  0  0  0
 11 31  1  0  0  0
M  END