305
 OpenBabel11300911573D

 12 12  0  0  0  0  0  0  0  0999 V2000
   -0.3598   -1.1228   -0.0070 N   0  0  0  0  0
   -1.1458   -0.0002   -0.0004 C   0  0  0  0  0
   -0.3725    1.1339    0.0030 C   0  0  0  0  0
    0.9184    0.6838   -0.0017 N   0  0  0  0  0
    0.8832   -0.6888   -0.0076 C   0  0  0  0  0
    2.1139   -1.5125   -0.0141 C   0  0  0  0  0
   -2.2260   -0.0708    0.0015 H   0  0  0  0  0
   -0.6190    2.1863    0.0082 H   0  0  0  0  0
    1.7534    1.2524   -0.0010 H   0  0  0  0  0
    1.8644   -2.5780   -0.0044 H   0  0  0  0  0
    2.7262   -1.2978    0.8671 H   0  0  0  0  0
    2.7082   -1.3096   -0.9103 H   0  0  0  0  0
  1  2  1  0  0  0
  1  5  2  0  0  0
  2  3  2  0  0  0
  2  7  1  0  0  0
  3  4  1  0  0  0
  3  8  1  0  0  0
  4  5  1  0  0  0
  4  9  1  0  0  0
  5  6  1  0  0  0
  6 10  1  0  0  0
  6 11  1  0  0  0
  6 12  1  0  0  0
M  END