306
 OpenBabel11300911573D

 30 30  0  0  0  0  0  0  0  0999 V2000
    4.6029    2.7209    0.2662 O   0  0  0  0  0
    4.7416    1.5136    0.1673 C   0  0  0  0  0
    4.3314    0.7754   -0.9065 O   0  0  0  0  0
    4.5335   -0.6152   -0.6262 C   0  0  0  0  0
    5.6306   -0.6325    0.4165 C   0  0  0  0  0
    4.8861   -1.3451   -1.9208 C   0  0  0  0  0
    5.0798   -2.8485   -1.7218 C   0  0  0  0  0
    5.4104   -3.5442   -3.0437 C   0  0  0  0  0
    5.5933   -5.0503   -2.8501 C   0  0  0  0  0
    5.9602   -5.7387   -4.1647 C   0  0  0  0  0
    6.1315   -7.2382   -3.9803 C   0  0  0  0  0
    5.3381    0.6173    1.2100 C   0  0  0  0  0
    3.5947   -1.0101   -0.2180 H   0  0  0  0  0
    6.6178   -0.5418   -0.0538 H   0  0  0  0  0
    5.6292   -1.5381    1.0296 H   0  0  0  0  0
    5.7890   -0.9022   -2.3610 H   0  0  0  0  0
    4.0882   -1.1677   -2.6536 H   0  0  0  0  0
    4.1671   -3.2820   -1.2954 H   0  0  0  0  0
    5.8901   -3.0305   -1.0064 H   0  0  0  0  0
    6.3273   -3.1134   -3.4642 H   0  0  0  0  0
    4.6063   -3.3626   -3.7672 H   0  0  0  0  0
    4.6677   -5.4844   -2.4529 H   0  0  0  0  0
    6.3803   -5.2338   -2.1086 H   0  0  0  0  0
    6.8926   -5.3163   -4.5576 H   0  0  0  0  0
    5.1803   -5.5548   -4.9129 H   0  0  0  0  0
    6.9208   -7.4568   -3.2542 H   0  0  0  0  0
    6.4042   -7.7079   -4.9304 H   0  0  0  0  0
    5.2029   -7.6981   -3.6281 H   0  0  0  0  0
    4.5971    0.4378    1.9941 H   0  0  0  0  0
    6.2495    1.0498    1.6289 H   0  0  0  0  0
  1  2  2  0  0  0
  2  3  1  0  0  0
  2 12  1  0  0  0
  3  4  1  0  0  0
  4  5  1  0  0  0
  4  6  1  0  0  0
  4 13  1  0  0  0
  5 12  1  0  0  0
  5 14  1  0  0  0
  5 15  1  0  0  0
  6  7  1  0  0  0
  6 16  1  0  0  0
  6 17  1  0  0  0
  7  8  1  0  0  0
  7 18  1  0  0  0
  7 19  1  0  0  0
  8  9  1  0  0  0
  8 20  1  0  0  0
  8 21  1  0  0  0
  9 10  1  0  0  0
  9 22  1  0  0  0
  9 23  1  0  0  0
 10 11  1  0  0  0
 10 24  1  0  0  0
 10 25  1  0  0  0
 11 26  1  0  0  0
 11 27  1  0  0  0
 11 28  1  0  0  0
 12 29  1  0  0  0
 12 30  1  0  0  0
M  END