307
 OpenBabel11300911203D

 23 23  0  0  0  0  0  0  0  0999 V2000
    0.8082    0.8737    0.5719 C   0  0  0  0  0
    2.1867    1.2108    0.4556 O   0  0  0  0  0
    2.4790    2.5028    0.1152 C   0  0  0  0  0
    1.5576    3.5345   -0.0430 C   0  0  0  0  0
    1.9997    4.8117   -0.3846 C   0  0  0  0  0
    1.0296    5.7711   -0.5172 O   0  0  0  0  0
    3.3642    5.0702   -0.5767 C   0  0  0  0  0
    3.8196    6.4282   -0.9362 C   0  0  0  0  0
    3.0092    7.3422   -1.0855 O   0  0  0  0  0
    4.2970    4.0319   -0.4409 C   0  0  0  0  0
    5.6160    4.3427   -0.6510 O   0  0  0  0  0
    6.4822    3.2575   -0.9718 C   0  0  0  0  0
    3.8438    2.7591   -0.0782 C   0  0  0  0  0
    0.7443   -0.1922    0.8096 H   0  0  0  0  0
    0.2816    1.0366   -0.3744 H   0  0  0  0  0
    0.3349    1.4269    1.3897 H   0  0  0  0  0
    0.4913    3.3848    0.0976 H   0  0  0  0  0
    1.4701    6.6174   -0.7634 H   0  0  0  0  0
    4.9000    6.5989   -1.0656 H   0  0  0  0  0
    7.4291    3.6806   -1.3209 H   0  0  0  0  0
    6.0727    2.6448   -1.7825 H   0  0  0  0  0
    6.6938    2.6519   -0.0854 H   0  0  0  0  0
    4.5345    1.9343    0.0743 H   0  0  0  0  0
  1  2  1  0  0  0
  1 14  1  0  0  0
  1 15  1  0  0  0
  1 16  1  0  0  0
  2  3  1  0  0  0
  3 13  1  0  0  0
  3  4  2  0  0  0
  4  5  1  0  0  0
  4 17  1  0  0  0
  5  7  2  0  0  0
  5  6  1  0  0  0
  6 18  1  0  0  0
  7 10  1  0  0  0
  7  8  1  0  0  0
  8  9  2  0  0  0
  8 19  1  0  0  0
 10 13  2  0  0  0
 10 11  1  0  0  0
 11 12  1  0  0  0
 12 20  1  0  0  0
 12 21  1  0  0  0
 12 22  1  0  0  0
 13 23  1  0  0  0
M  END