308
 OpenBabel11300911203D

 22 22  0  0  0  0  0  0  0  0999 V2000
    1.0025    0.1652   -0.0601 C   0  0  0  0  0
    2.4908    0.4588    0.0167 C   0  0  0  0  0
    2.7978    1.9455   -0.0603 C   0  0  0  0  0
    1.9188    2.7908   -0.1804 O   0  0  0  0  0
    4.1617    2.1844    0.0216 N   0  0  0  0  0
    4.8188    3.4325   -0.0105 C   0  0  0  0  0
    4.1618    4.6584   -0.1313 C   0  0  0  0  0
    4.8863    5.8561   -0.1543 C   0  0  0  0  0
    6.2779    5.8411   -0.0568 C   0  0  0  0  0
    7.1079    7.3546   -0.0915 Cl  0  0  0  0  0
    6.9449    4.6194    0.0642 C   0  0  0  0  0
    8.6653    4.5118    0.1902 Cl  0  0  0  0  0
    6.2162    3.4230    0.0870 C   0  0  0  0  0
    0.8225   -0.9128   -0.0035 H   0  0  0  0  0
    0.5767    0.5345   -0.9991 H   0  0  0  0  0
    0.4644    0.6457    0.7640 H   0  0  0  0  0
    3.0036   -0.0460   -0.8100 H   0  0  0  0  0
    2.8893    0.0687    0.9603 H   0  0  0  0  0
    4.7552    1.3688    0.1150 H   0  0  0  0  0
    3.0801    4.7233   -0.2099 H   0  0  0  0  0
    4.3502    6.7976   -0.2489 H   0  0  0  0  0
    6.7537    2.4828    0.1820 H   0  0  0  0  0
  1  2  1  0  0  0
  1 14  1  0  0  0
  1 15  1  0  0  0
  1 16  1  0  0  0
  2  3  1  0  0  0
  2 17  1  0  0  0
  2 18  1  0  0  0
  3  5  1  0  0  0
  3  4  2  0  0  0
  5  6  1  0  0  0
  5 19  1  0  0  0
  6  7  2  0  0  0
  6 13  1  0  0  0
  7  8  1  0  0  0
  7 20  1  0  0  0
  8  9  2  0  0  0
  8 21  1  0  0  0
  9 11  1  0  0  0
  9 10  1  0  0  0
 11 13  2  0  0  0
 11 12  1  0  0  0
 13 22  1  0  0  0
M  END