309
 OpenBabel11300911203D

 12 11  0  0  0  0  0  0  0  0999 V2000
    0.7742   -0.1502   -0.3626 C   0  0  0  0  0
    0.0871    1.1647   -0.0916 C   0  0  0  0  0
    0.9515    2.4238   -1.0386 Cl  0  0  0  0  0
   -1.3912    1.1735   -0.4875 C   0  0  0  0  0
   -2.3646    0.0963    0.5543 Cl  0  0  0  0  0
    1.3732   -0.8998    0.5722 C   0  0  0  0  0
    0.7763   -0.5027   -1.3928 H   0  0  0  0  0
    0.1940    1.4532    0.9601 H   0  0  0  0  0
   -1.5376    0.8459   -1.5222 H   0  0  0  0  0
   -1.8182    2.1761   -0.3835 H   0  0  0  0  0
    1.4029   -0.6023    1.6164 H   0  0  0  0  0
    1.8511   -1.8393    0.3085 H   0  0  0  0  0
  1  6  2  0  0  0
  1  2  1  0  0  0
  1  7  1  0  0  0
  2  4  1  0  0  0
  2  3  1  0  0  0
  2  8  1  0  0  0
  4  5  1  0  0  0
  4  9  1  0  0  0
  4 10  1  0  0  0
  6 11  1  0  0  0
  6 12  1  0  0  0
M  END