310
 OpenBabel11300911573D

 30 29  0  0  0  0  0  0  0  0999 V2000
    1.0762   -0.4417   -0.0162 O   0  0  0  0  0
    2.2794   -0.2202    0.0033 C   0  0  0  0  0
    2.8720    1.0283   -0.0140 N   0  0  0  0  0
    2.0404    2.2255   -0.0769 C   0  0  0  0  0
    1.6441    2.7109    1.3182 C   0  0  0  0  0
    0.7556    3.9513    1.2413 C   0  0  0  0  0
    0.3486    4.4328    2.6245 C   0  0  0  0  0
    4.3223    1.1720    0.0288 C   0  0  0  0  0
    4.9192    1.2378   -1.3772 C   0  0  0  0  0
    6.4417    1.3504   -1.3317 C   0  0  0  0  0
    7.0361    1.4163   -2.7297 C   0  0  0  0  0
    3.0164   -1.0400    0.0366 H   0  0  0  0  0
    1.1370    1.9951   -0.6536 H   0  0  0  0  0
    2.5849    3.0049   -0.6214 H   0  0  0  0  0
    2.5454    2.9351    1.9023 H   0  0  0  0  0
    1.1163    1.9104    1.8523 H   0  0  0  0  0
   -0.1461    3.7277    0.6600 H   0  0  0  0  0
    1.2859    4.7570    0.7214 H   0  0  0  0  0
   -0.2116    3.6595    3.1606 H   0  0  0  0  0
   -0.2884    5.3195    2.5451 H   0  0  0  0  0
    1.2267    4.6979    3.2225 H   0  0  0  0  0
    4.7410    0.3101    0.5619 H   0  0  0  0  0
    4.5707    2.0694    0.6069 H   0  0  0  0  0
    4.5008    2.0954   -1.9178 H   0  0  0  0  0
    4.6316    0.3418   -1.9414 H   0  0  0  0  0
    6.8636    0.4880   -0.8027 H   0  0  0  0  0
    6.7329    2.2481   -0.7740 H   0  0  0  0  0
    6.7860    0.5192   -3.3053 H   0  0  0  0  0
    8.1268    1.4915   -2.6752 H   0  0  0  0  0
    6.6622    2.2894   -3.2743 H   0  0  0  0  0
  1  2  2  0  0  0
  2  3  1  0  0  0
  2 12  1  0  0  0
  3  8  1  0  0  0
  3  4  1  0  0  0
  4  5  1  0  0  0
  4 13  1  0  0  0
  4 14  1  0  0  0
  5  6  1  0  0  0
  5 15  1  0  0  0
  5 16  1  0  0  0
  6  7  1  0  0  0
  6 17  1  0  0  0
  6 18  1  0  0  0
  7 19  1  0  0  0
  7 20  1  0  0  0
  7 21  1  0  0  0
  8  9  1  0  0  0
  8 22  1  0  0  0
  8 23  1  0  0  0
  9 10  1  0  0  0
  9 24  1  0  0  0
  9 25  1  0  0  0
 10 11  1  0  0  0
 10 26  1  0  0  0
 10 27  1  0  0  0
 11 28  1  0  0  0
 11 29  1  0  0  0
 11 30  1  0  0  0
M  END