311
 OpenBabel11300911573D

 11 10  0  0  0  0  0  0  0  0999 V2000
    1.0000    0.0000    0.0000 C   0  0  0  0  0
    2.4440    0.0000    0.0000 C   0  0  0  0  0
    3.6342    0.0000    0.0000 C   0  0  0  0  0
    5.0782    0.0000    0.0000 C   0  0  0  0  0
    5.5671    1.3347   -0.0242 O   0  0  0  0  0
    0.6060    1.0209    0.0117 H   0  0  0  0  0
    0.6059   -0.5205    0.8782 H   0  0  0  0  0
    0.6059   -0.5003   -0.8899 H   0  0  0  0  0
    5.4770   -0.5241   -0.8739 H   0  0  0  0  0
    5.4763   -0.4878    0.8942 H   0  0  0  0  0
    5.0757    1.7964   -0.7246 H   0  0  0  0  0
  1  2  1  0  0  0
  1  6  1  0  0  0
  1  7  1  0  0  0
  1  8  1  0  0  0
  2  3  3  0  0  0
  3  4  1  0  0  0
  4  5  1  0  0  0
  4  9  1  0  0  0
  4 10  1  0  0  0
  5 11  1  0  0  0
M  END