312
 OpenBabel11300911203D

 22 21  0  0  0  0  0  0  0  0999 V2000
    1.0632    0.4095    0.0719 C   0  0  0  0  0
    0.8116   -0.7948   -0.4784 C   0  0  0  0  0
    1.6784   -1.9540   -0.4604 C   0  0  0  0  0
    1.4733   -3.1271   -1.0927 C   0  0  0  0  0
    0.3119   -3.4667   -1.9879 C   0  0  0  0  0
    2.4670   -4.2514   -0.9401 C   0  0  0  0  0
    0.0305    1.5068   -0.0090 C   0  0  0  0  0
    2.3215    0.8181    0.7893 C   0  0  0  0  0
   -0.1478   -0.9265   -0.9722 H   0  0  0  0  0
    2.5770   -1.8660    0.1455 H   0  0  0  0  0
   -0.3586   -2.6270   -2.1813 H   0  0  0  0  0
   -0.2824   -4.2710   -1.5420 H   0  0  0  0  0
    0.6781   -3.8101   -2.9617 H   0  0  0  0  0
    3.2975   -3.9895   -0.2753 H   0  0  0  0  0
    2.8928   -4.5167   -1.9136 H   0  0  0  0  0
    1.9757   -5.1366   -0.5219 H   0  0  0  0  0
    0.4333    2.3672   -0.5531 H   0  0  0  0  0
   -0.2540    1.8327    0.9971 H   0  0  0  0  0
   -0.8816    1.1864   -0.5231 H   0  0  0  0  0
    2.7346    1.7245    0.3334 H   0  0  0  0  0
    3.1103    0.0646    0.7640 H   0  0  0  0  0
    2.1004    1.0334    1.8402 H   0  0  0  0  0
  1  8  1  0  0  0
  1  7  1  0  0  0
  1  2  2  0  0  0
  2  3  1  0  0  0
  2  9  1  0  0  0
  3  4  2  0  0  0
  3 10  1  0  0  0
  4  6  1  0  0  0
  4  5  1  0  0  0
  5 11  1  0  0  0
  5 12  1  0  0  0
  5 13  1  0  0  0
  6 14  1  0  0  0
  6 15  1  0  0  0
  6 16  1  0  0  0
  7 17  1  0  0  0
  7 18  1  0  0  0
  7 19  1  0  0  0
  8 20  1  0  0  0
  8 21  1  0  0  0
  8 22  1  0  0  0
M  END