313
 OpenBabel11300911213D

 28 30  0  0  0  0  0  0  0  0999 V2000
    0.9858   -0.0082   -0.0092 N   0  0  0  0  0
    2.4476   -0.0010   -0.0004 C   0  0  0  0  0
    2.9755    0.8768    1.1560 C   0  0  0  0  0
    4.5151    0.8785    1.1581 C   0  0  0  0  0
    5.0225    1.4351   -0.1838 C   0  0  0  0  0
    4.5136    0.5629   -1.3437 C   0  0  0  0  0
    5.0215   -0.8770   -1.1552 C   0  0  0  0  0
    4.5140   -1.4458    0.1807 C   0  0  0  0  0
    5.0230   -0.5631    1.3325 C   0  0  0  0  0
    2.9741    0.5615   -1.3392 C   0  0  0  0  0
    2.9748   -1.4416    0.1810 C   0  0  0  0  0
    0.6355    0.9448   -0.1005 H   0  0  0  0  0
    0.6359   -0.3537    0.8838 H   0  0  0  0  0
    2.6085    0.5033    2.1208 H   0  0  0  0  0
    2.6080    1.9064    1.0559 H   0  0  0  0  0
    4.8836    1.5034    1.9804 H   0  0  0  0  0
    4.6798    2.4688   -0.3138 H   0  0  0  0  0
    6.1191    1.4602   -0.1875 H   0  0  0  0  0
    4.8799    0.9627   -2.2957 H   0  0  0  0  0
    6.1183   -0.8925   -1.1765 H   0  0  0  0  0
    4.6783   -1.5070   -1.9855 H   0  0  0  0  0
    4.8809   -2.4700    0.3097 H   0  0  0  0  0
    4.6807   -0.9665    2.2935 H   0  0  0  0  0
    6.1197   -0.5730    1.3556 H   0  0  0  0  0
    2.6062    1.5837   -1.4981 H   0  0  0  0  0
    2.6050   -0.0407   -2.1805 H   0  0  0  0  0
    2.6056   -2.0900   -0.6252 H   0  0  0  0  0
    2.6072   -1.8699    1.1230 H   0  0  0  0  0
  1  2  1  0  0  0
  1 12  1  0  0  0
  1 13  1  0  0  0
  2  3  1  0  0  0
  2 10  1  0  0  0
  2 11  1  0  0  0
  3  4  1  0  0  0
  3 14  1  0  0  0
  3 15  1  0  0  0
  4  5  1  0  0  0
  4  9  1  0  0  0
  4 16  1  0  0  0
  5  6  1  0  0  0
  5 17  1  0  0  0
  5 18  1  0  0  0
  6 10  1  0  0  0
  6  7  1  0  0  0
  6 19  1  0  0  0
  7  8  1  0  0  0
  7 20  1  0  0  0
  7 21  1  0  0  0
  8  9  1  0  0  0
  8 11  1  0  0  0
  8 22  1  0  0  0
  9 23  1  0  0  0
  9 24  1  0  0  0
 10 25  1  0  0  0
 10 26  1  0  0  0
 11 27  1  0  0  0
 11 28  1  0  0  0
M  END