315
 OpenBabel11300911213D

 14 14  0  0  0  0  0  0  0  0999 V2000
    0.9386   -0.0208    0.0588 F   0  0  0  0  0
    2.2809   -0.0056    0.0261 C   0  0  0  0  0
    2.9804   -1.2208    0.0009 C   0  0  0  0  0
    2.3063   -2.4443    0.1739 N   0  0  0  0  0
    4.3812   -1.1629    0.0304 C   0  0  0  0  0
    5.0858   -2.3053    0.0674 F   0  0  0  0  0
    5.0548    0.0552    0.0022 C   0  0  0  0  0
    6.3950    0.0801    0.0023 F   0  0  0  0  0
    4.3383    1.2429   -0.0190 C   0  0  0  0  0
    4.9849    2.4166   -0.0464 F   0  0  0  0  0
    2.9513    1.2142   -0.0020 C   0  0  0  0  0
    2.2566    2.3606   -0.0065 F   0  0  0  0  0
    1.3403   -2.4344   -0.1476 H   0  0  0  0  0
    2.8320   -3.2562   -0.1445 H   0  0  0  0  0
  1  2  1  0  0  0
  2  3  2  0  0  0
  2 11  1  0  0  0
  3  5  1  0  0  0
  3  4  1  0  0  0
  4 13  1  0  0  0
  4 14  1  0  0  0
  5  7  2  0  0  0
  5  6  1  0  0  0
  7  9  1  0  0  0
  7  8  1  0  0  0
  9 11  2  0  0  0
  9 10  1  0  0  0
 11 12  1  0  0  0
M  END