317
 OpenBabel11300911573D

 35 37  0  0  0  0  0  0  0  0999 V2000
    2.3486    0.1856   -0.0029 O   0  0  0  0  0
    3.8598    0.0237   -0.0343 P   0  0  0  0  0
    4.4408   -0.8922    1.4106 C   0  0  0  0  0
    5.7183   -0.6963    1.9573 C   0  0  0  0  0
    6.1290   -1.4229    3.0761 C   0  0  0  0  0
    5.2687   -2.3503    3.6612 C   0  0  0  0  0
    3.9968   -2.5528    3.1300 C   0  0  0  0  0
    3.5854   -1.8282    2.0112 C   0  0  0  0  0
    4.3851   -0.8782   -1.5058 C   0  0  0  0  0
    5.5376   -1.6767   -1.5344 C   0  0  0  0  0
    5.9073   -2.3484   -2.7018 C   0  0  0  0  0
    5.1328   -2.2282   -3.8538 C   0  0  0  0  0
    3.9857   -1.4392   -3.8410 C   0  0  0  0  0
    3.6136   -0.7698   -2.6743 C   0  0  0  0  0
    4.6676    1.6370   -0.0119 C   0  0  0  0  0
    4.3856    2.5105    1.0523 C   0  0  0  0  0
    4.9881    3.7662    1.1257 C   0  0  0  0  0
    5.8725    4.1705    0.1293 C   0  0  0  0  0
    6.1522    3.3211   -0.9396 C   0  0  0  0  0
    5.5540    2.0609   -1.0114 C   0  0  0  0  0
    6.4035    0.0250    1.5179 H   0  0  0  0  0
    7.1194   -1.2629    3.4951 H   0  0  0  0  0
    5.5877   -2.9129    4.5349 H   0  0  0  0  0
    3.3221   -3.2712    3.5887 H   0  0  0  0  0
    2.5866   -1.9844    1.6053 H   0  0  0  0  0
    6.1582   -1.7915   -0.6501 H   0  0  0  0  0
    6.7987   -2.9709   -2.7112 H   0  0  0  0  0
    5.4201   -2.7546   -4.7604 H   0  0  0  0  0
    3.3760   -1.3478   -4.7365 H   0  0  0  0  0
    2.7104   -0.1605   -2.6689 H   0  0  0  0  0
    3.6839    2.2056    1.8281 H   0  0  0  0  0
    4.7604    4.4301    1.9561 H   0  0  0  0  0
    6.3370    5.1519    0.1808 H   0  0  0  0  0
    6.8335    3.6435   -1.7234 H   0  0  0  0  0
    5.7838    1.4235   -1.8615 H   0  0  0  0  0
  1  2  2  0  0  0
  2 15  1  0  0  0
  2  9  1  0  0  0
  2  3  1  0  0  0
  3  4  2  0  0  0
  3  8  1  0  0  0
  4  5  1  0  0  0
  4 21  1  0  0  0
  5  6  2  0  0  0
  5 22  1  0  0  0
  6  7  1  0  0  0
  6 23  1  0  0  0
  7  8  2  0  0  0
  7 24  1  0  0  0
  8 25  1  0  0  0
  9 10  2  0  0  0
  9 14  1  0  0  0
 10 11  1  0  0  0
 10 26  1  0  0  0
 11 12  2  0  0  0
 11 27  1  0  0  0
 12 13  1  0  0  0
 12 28  1  0  0  0
 13 14  2  0  0  0
 13 29  1  0  0  0
 14 30  1  0  0  0
 15 16  2  0  0  0
 15 20  1  0  0  0
 16 17  1  0  0  0
 16 31  1  0  0  0
 17 18  2  0  0  0
 17 32  1  0  0  0
 18 19  1  0  0  0
 18 33  1  0  0  0
 19 20  2  0  0  0
 19 34  1  0  0  0
 20 35  1  0  0  0
M  END