318
 OpenBabel11300911583D

 16 15  0  0  0  0  0  0  0  0999 V2000
    1.7713   -0.0052   -2.1699 O   0  0  0  0  0
    2.4231   -0.6686   -1.3792 C   0  0  0  0  0
    3.1076   -0.1908   -0.3118 O   0  0  0  0  0
    3.0754    1.2396   -0.1555 C   0  0  0  0  0
    1.8313    1.6867    0.6132 C   0  0  0  0  0
    0.6168    1.4598   -0.0958 O   0  0  0  0  0
    2.6008   -2.1344   -1.4271 C   0  0  0  0  0
    2.1115   -2.8519   -2.4458 C   0  0  0  0  0
    3.1415    1.7331   -1.1326 H   0  0  0  0  0
    3.9718    1.5141    0.4102 H   0  0  0  0  0
    1.8928    2.7581    0.8246 H   0  0  0  0  0
    1.7579    1.1483    1.5629 H   0  0  0  0  0
    0.8247    1.2428   -1.0279 H   0  0  0  0  0
    3.1416   -2.6002   -0.6133 H   0  0  0  0  0
    1.5703   -2.3853   -3.2640 H   0  0  0  0  0
    2.2435   -3.9280   -2.4805 H   0  0  0  0  0
  1  2  2  0  0  0
  2  7  1  0  0  0
  2  3  1  0  0  0
  3  4  1  0  0  0
  4  5  1  0  0  0
  4  9  1  0  0  0
  4 10  1  0  0  0
  5  6  1  0  0  0
  5 11  1  0  0  0
  5 12  1  0  0  0
  6 13  1  0  0  0
  7  8  2  0  0  0
  7 14  1  0  0  0
  8 15  1  0  0  0
  8 16  1  0  0  0
M  END