319
 OpenBabel11300911213D

 23 22  0  0  0  0  0  0  0  0999 V2000
    0.7872    0.6577   -0.2957 O   0  0  0  0  0
    2.1682    0.3488   -0.1210 C   0  0  0  0  0
    2.5631   -0.6512   -1.1239 C   0  0  0  0  0
    2.8896   -1.4706   -1.9405 C   0  0  0  0  0
    2.9617    1.6512   -0.2531 C   0  0  0  0  0
    4.4524    1.4807    0.0527 C   0  0  0  0  0
    5.1992    2.8118   -0.0531 C   0  0  0  0  0
    6.6953    2.6274    0.2008 C   0  0  0  0  0
    7.4481    3.9427    0.0834 C   0  0  0  0  0
    0.3190   -0.1916   -0.3650 H   0  0  0  0  0
    2.2877   -0.0597    0.8884 H   0  0  0  0  0
    3.1855   -2.1912   -2.6672 H   0  0  0  0  0
    2.5322    2.3975    0.4284 H   0  0  0  0  0
    2.8331    2.0654   -1.2622 H   0  0  0  0  0
    4.8989    0.7632   -0.6455 H   0  0  0  0  0
    4.5758    1.0702    1.0622 H   0  0  0  0  0
    4.7866    3.5241    0.6717 H   0  0  0  0  0
    5.0470    3.2407   -1.0511 H   0  0  0  0  0
    7.1093    1.9123   -0.5197 H   0  0  0  0  0
    6.8546    2.2085    1.2013 H   0  0  0  0  0
    7.3347    4.3715   -0.9174 H   0  0  0  0  0
    8.5157    3.7855    0.2662 H   0  0  0  0  0
    7.0816    4.6712    0.8136 H   0  0  0  0  0
  1  2  1  0  0  0
  1 10  1  0  0  0
  2  5  1  0  0  0
  2  3  1  0  0  0
  2 11  1  0  0  0
  3  4  3  0  0  0
  4 12  1  0  0  0
  5  6  1  0  0  0
  5 13  1  0  0  0
  5 14  1  0  0  0
  6  7  1  0  0  0
  6 15  1  0  0  0
  6 16  1  0  0  0
  7  8  1  0  0  0
  7 17  1  0  0  0
  7 18  1  0  0  0
  8  9  1  0  0  0
  8 19  1  0  0  0
  8 20  1  0  0  0
  9 21  1  0  0  0
  9 22  1  0  0  0
  9 23  1  0  0  0
M  END