321
                    3D
 Structure written by MMmdl.
 18 18  0  0  1  0            999 V2000
    0.8739   -0.3217   -2.6076 Cl  0  0  0  0  0  0
    1.2242    0.6158   -1.1285 C   0  0  2  0  0  0
    1.6760   -0.3351   -0.0020 C   0  0  0  0  0  0
    0.5239   -1.2149    0.5152 C   0  0  0  0  0  0
   -0.6737   -0.3600    0.9597 C   0  0  0  0  0  0
   -1.1520    0.5622   -0.1758 C   0  0  0  0  0  0
   -0.0150    1.4440   -0.7303 C   0  0  1  0  0  0
    0.4443    2.6724    0.4820 Cl  0  0  0  0  0  0
   -0.3740    1.9997   -1.5979 H   0  0  0  0  0  0
   -1.9746    1.1885    0.1710 H   0  0  0  0  0  0
   -1.5571   -0.0498   -0.9827 H   0  0  0  0  0  0
   -0.3973    0.2364    1.8304 H   0  0  0  0  0  0
   -1.4914   -1.0063    1.2807 H   0  0  0  0  0  0
    0.8713   -1.8278    1.3479 H   0  0  0  0  0  0
    0.2099   -1.9105   -0.2645 H   0  0  0  0  0  0
    2.0732    0.2530    0.8266 H   0  0  0  0  0  0
    2.4987   -0.9610   -0.3496 H   0  0  0  0  0  0
    2.0424    1.2890   -1.3879 H   0  0  0  0  0  0
  1  2  1  0  0  0
  2  3  1  0  0  0
  2  7  1  0  0  0
  2 18  1  0  0  0
  3  4  1  0  0  0
  3 16  1  0  0  0
  3 17  1  0  0  0
  4  5  1  0  0  0
  4 14  1  0  0  0
  4 15  1  0  0  0
  5  6  1  0  0  0
  5 12  1  0  0  0
  5 13  1  0  0  0
  6  7  1  0  0  0
  6 10  1  0  0  0
  6 11  1  0  0  0
  7  8  1  0  0  0
  7  9  1  0  0  0
M  END