323
 OpenBabel11300911583D

 19 18  0  0  0  0  0  0  0  0999 V2000
    4.2105    2.7083   -0.1818 O   0  0  0  0  0
    4.7245    1.9495   -0.9923 C   0  0  0  0  0
    5.1949    0.7123   -0.6988 O   0  0  0  0  0
    5.0798    0.3105    0.6785 C   0  0  0  0  0
    3.6841   -0.2411    0.9769 C   0  0  0  0  0
    2.6716    0.7643    1.0194 O   0  0  0  0  0
    4.8816    2.2815   -2.4360 C   0  0  0  0  0
    5.3985    1.4148   -3.3252 C   0  0  0  0  0
    4.4090    3.6483   -2.8299 C   0  0  0  0  0
    5.3369    1.1425    1.3435 H   0  0  0  0  0
    5.8213   -0.4794    0.8337 H   0  0  0  0  0
    3.6828   -0.7369    1.9529 H   0  0  0  0  0
    3.3894   -0.9700    0.2147 H   0  0  0  0  0
    3.0747    1.6326    0.8124 H   0  0  0  0  0
    5.7353    0.4225   -3.0433 H   0  0  0  0  0
    5.4948    1.6781   -4.3746 H   0  0  0  0  0
    3.3486    3.7740   -2.5850 H   0  0  0  0  0
    4.5223    3.8272   -3.9042 H   0  0  0  0  0
    4.9825    4.4182   -2.3033 H   0  0  0  0  0
  1  2  2  0  0  0
  2  7  1  0  0  0
  2  3  1  0  0  0
  3  4  1  0  0  0
  4  5  1  0  0  0
  4 10  1  0  0  0
  4 11  1  0  0  0
  5  6  1  0  0  0
  5 12  1  0  0  0
  5 13  1  0  0  0
  6 14  1  0  0  0
  7  9  1  0  0  0
  7  8  2  0  0  0
  8 15  1  0  0  0
  8 16  1  0  0  0
  9 17  1  0  0  0
  9 18  1  0  0  0
  9 19  1  0  0  0
M  END