324
 OpenBabel11300911213D

  9  9  0  0  0  0  0  0  0  0999 V2000
   -1.2622    0.1549   -0.0014 C   0  0  0  0  0
   -0.3608    1.1984    0.0005 C   0  0  0  0  0
    0.9747    0.7250    0.0004 C   0  0  0  0  0
    2.4495    1.9002    0.0027 Br  0  0  0  0  0
    1.0679   -0.6444   -0.0017 C   0  0  0  0  0
   -0.4835   -1.3727   -0.0034 S   0  0  0  0  0
   -2.3422    0.2116   -0.0017 H   0  0  0  0  0
   -0.6574    2.2399    0.0020 H   0  0  0  0  0
    1.9586   -1.2570   -0.0022 H   0  0  0  0  0
  1  6  1  0  0  0
  1  2  2  0  0  0
  1  7  1  0  0  0
  2  3  1  0  0  0
  2  8  1  0  0  0
  3  5  2  0  0  0
  3  4  1  0  0  0
  5  6  1  0  0  0
  5  9  1  0  0  0
M  END