327
 OpenBabel11300911583D

 12 11  0  0  0  0  0  0  0  0999 V2000
    1.6772   -0.1371    1.7003 F   0  0  0  0  0
    2.7487   -0.0074    0.8796 C   0  0  0  0  0
    3.8480   -0.0204    1.6639 F   0  0  0  0  0
    2.7759   -1.1071    0.0997 F   0  0  0  0  0
    2.6504    1.2713    0.0764 C   0  0  0  0  0
    2.5513    2.4486    0.9244 O   0  0  0  0  0
    3.8668    1.3154   -0.8221 C   0  0  0  0  0
    3.8197    2.4001   -1.6331 F   0  0  0  0  0
    5.0088    1.4115   -0.1048 F   0  0  0  0  0
    3.9641    0.2344   -1.6215 F   0  0  0  0  0
    1.7429    1.2507   -0.5349 H   0  0  0  0  0
    3.3602    2.4903    1.4722 H   0  0  0  0  0
  1  2  1  0  0  0
  2  5  1  0  0  0
  2  4  1  0  0  0
  2  3  1  0  0  0
  5  7  1  0  0  0
  5  6  1  0  0  0
  5 11  1  0  0  0
  6 12  1  0  0  0
  7 10  1  0  0  0
  7  9  1  0  0  0
  7  8  1  0  0  0
M  END