330
                    3D
 Structure written by MMmdl.
 19 18  0  0  1  0            999 V2000
    2.9748   -0.2930   -1.1671 O   0  0  0  0  0  0
    2.0138    0.5948   -1.7036 C   0  0  0  0  0  0
    1.3138    1.3564   -0.5705 C   0  0  0  0  0  0
    0.5294    0.4298    0.3442 C   0  0  0  0  0  0
   -0.7954    0.4357    0.5860 C   0  0  0  0  0  0
   -1.8415    1.3627   -0.0073 C   0  0  0  0  0  0
   -2.4764    2.2586    1.0613 C   0  0  0  0  0  0
   -2.9574    1.6676    1.8415 H   0  0  0  0  0  0
   -3.2338    2.9097    0.6240 H   0  0  0  0  0  0
   -1.7273    2.8936    1.5357 H   0  0  0  0  0  0
   -2.6112    0.7464   -0.4732 H   0  0  0  0  0  0
   -1.4316    1.9792   -0.8042 H   0  0  0  0  0  0
   -1.1803   -0.2982    1.2805 H   0  0  0  0  0  0
    1.1351   -0.3105    0.8487 H   0  0  0  0  0  0
    0.6778    2.1300   -0.9942 H   0  0  0  0  0  0
    2.0560    1.8799    0.0333 H   0  0  0  0  0  0
    1.2867    0.0384   -2.2973 H   0  0  0  0  0  0
    2.5112    1.2958   -2.3753 H   0  0  0  0  0  0
    3.3970   -0.7549   -1.8765 H   0  0  0  0  0  0
  1  2  1  0  0  0
  1 19  1  0  0  0
  2  3  1  0  0  0
  2 17  1  0  0  0
  2 18  1  0  0  0
  3  4  1  0  0  0
  3 15  1  0  0  0
  3 16  1  0  0  0
  4  5  2  0  0  0
  4 14  1  0  0  0
  5  6  1  0  0  0
  5 13  1  0  0  0
  6  7  1  0  0  0
  6 11  1  0  0  0
  6 12  1  0  0  0
  7  8  1  0  0  0
  7  9  1  0  0  0
  7 10  1  0  0  0
M  END