331
 OpenBabel11300911213D

 19 18  0  0  0  0  0  0  0  0999 V2000
    1.8730    0.2230   -1.2689 O   0  0  0  0  0
    2.0484    1.6360   -1.2316 C   0  0  0  0  0
    2.8023    2.0442    0.0336 C   0  0  0  0  0
    4.2393    1.5961    0.0032 C   0  0  0  0  0
    5.2930    2.4266    0.0564 C   0  0  0  0  0
    6.7208    1.9636    0.0284 C   0  0  0  0  0
    7.4610    2.3717    1.2926 C   0  0  0  0  0
    1.4452    0.0134   -2.1164 H   0  0  0  0  0
    1.0551    2.0960   -1.2354 H   0  0  0  0  0
    2.5840    1.9507   -2.1336 H   0  0  0  0  0
    2.3252    1.5920    0.9110 H   0  0  0  0  0
    2.7448    3.1328    0.1484 H   0  0  0  0  0
    4.3970    0.5202   -0.0575 H   0  0  0  0  0
    5.1317    3.5009    0.1166 H   0  0  0  0  0
    7.2173    2.4050   -0.8433 H   0  0  0  0  0
    6.7792    0.8748   -0.0876 H   0  0  0  0  0
    7.4716    3.4604    1.4118 H   0  0  0  0  0
    8.4991    2.0270    1.2508 H   0  0  0  0  0
    6.9948    1.9356    2.1825 H   0  0  0  0  0
  1  2  1  0  0  0
  1  8  1  0  0  0
  2  3  1  0  0  0
  2  9  1  0  0  0
  2 10  1  0  0  0
  3  4  1  0  0  0
  3 11  1  0  0  0
  3 12  1  0  0  0
  4  5  2  0  0  0
  4 13  1  0  0  0
  5  6  1  0  0  0
  5 14  1  0  0  0
  6  7  1  0  0  0
  6 15  1  0  0  0
  6 16  1  0  0  0
  7 17  1  0  0  0
  7 18  1  0  0  0
  7 19  1  0  0  0
M  END