332
 OpenBabel11300911213D

 18 18  0  0  0  0  0  0  0  0999 V2000
    0.9851    0.1129    0.0258 O   0  0  0  0  0
    2.2191    0.0936    0.0062 C   0  0  0  0  0
    2.9628   -1.1657   -0.0002 C   0  0  0  0  0
    4.3267   -1.4090   -0.0103 N   0  0  0  0  0
    4.5611   -2.7653   -0.0143 C   0  0  0  0  0
    3.3537   -3.4166   -0.0052 C   0  0  0  0  0
    5.4067   -0.4466   -0.0140 C   0  0  0  0  0
    2.3575   -2.4208    0.0040 C   0  0  0  0  0
    2.9506    1.4083   -0.0122 C   0  0  0  0  0
    5.5688   -3.1612   -0.0225 H   0  0  0  0  0
    3.2066   -4.4888   -0.0050 H   0  0  0  0  0
    6.3665   -0.9714   -0.0160 H   0  0  0  0  0
    5.3399    0.1596    0.8911 H   0  0  0  0  0
    5.3350    0.1583   -0.9195 H   0  0  0  0  0
    1.2854   -2.5837    0.0126 H   0  0  0  0  0
    2.2216    2.2257   -0.0126 H   0  0  0  0  0
    3.5475    1.5008   -0.9215 H   0  0  0  0  0
    3.5645    1.5166    0.8839 H   0  0  0  0  0
  1  2  2  0  0  0
  2  9  1  0  0  0
  2  3  1  0  0  0
  3  4  1  0  0  0
  3  8  2  0  0  0
  4  5  1  0  0  0
  4  7  1  0  0  0
  5  6  2  0  0  0
  5 10  1  0  0  0
  6  8  1  0  0  0
  6 11  1  0  0  0
  7 12  1  0  0  0
  7 13  1  0  0  0
  7 14  1  0  0  0
  8 15  1  0  0  0
  9 16  1  0  0  0
  9 17  1  0  0  0
  9 18  1  0  0  0
M  END