335
 OpenBabel11300911213D

 19 18  0  0  0  0  0  0  0  0999 V2000
    6.3943   -1.4083    1.6184 O   0  0  0  0  0
    5.4334   -2.1258    1.4006 C   0  0  0  0  0
    5.1929   -2.8311    0.2670 O   0  0  0  0  0
    6.1463   -2.6207   -0.7941 C   0  0  0  0  0
    7.3388   -3.5681   -0.6286 C   0  0  0  0  0
    6.8917   -4.9219   -0.7527 O   0  0  0  0  0
    8.3945   -3.3205   -1.6936 C   0  0  0  0  0
    4.3121   -2.3637    2.3331 C   0  0  0  0  0
    4.2269   -1.6893    3.4868 C   0  0  0  0  0
    6.4584   -1.5702   -0.8328 H   0  0  0  0  0
    5.6140   -2.8416   -1.7259 H   0  0  0  0  0
    7.7828   -3.4674    0.3671 H   0  0  0  0  0
    6.1476   -5.0272   -0.1328 H   0  0  0  0  0
    7.9807   -3.4661   -2.6977 H   0  0  0  0  0
    9.2197   -4.0328   -1.5882 H   0  0  0  0  0
    8.7978   -2.3058   -1.6247 H   0  0  0  0  0
    3.5607   -3.0881    2.0439 H   0  0  0  0  0
    4.9752   -0.9548    3.7741 H   0  0  0  0  0
    3.3987   -1.8544    4.1678 H   0  0  0  0  0
  1  2  2  0  0  0
  2  8  1  0  0  0
  2  3  1  0  0  0
  3  4  1  0  0  0
  4  5  1  0  0  0
  4 10  1  0  0  0
  4 11  1  0  0  0
  5  7  1  0  0  0
  5  6  1  0  0  0
  5 12  1  0  0  0
  6 13  1  0  0  0
  7 14  1  0  0  0
  7 15  1  0  0  0
  7 16  1  0  0  0
  8  9  2  0  0  0
  8 17  1  0  0  0
  9 18  1  0  0  0
  9 19  1  0  0  0
M  END