336
 OpenBabel11300911583D

 13 13  0  0  0  0  0  0  0  0999 V2000
    1.0527    0.0477    0.3038 N   0  0  0  0  0
    2.4271    0.0816    0.0903 C   0  0  0  0  0
    3.1020    1.2949    0.0240 C   0  0  0  0  0
    4.4826    1.2922   -0.1685 C   0  0  0  0  0
    5.1411    0.0763   -0.2811 C   0  0  0  0  0
    7.0059    0.0097   -0.5397 Br  0  0  0  0  0
    4.3923   -1.0858   -0.1949 C   0  0  0  0  0
    3.0484   -1.1053   -0.0105 N   0  0  0  0  0
    0.5541    0.5973   -0.3857 H   0  0  0  0  0
    0.7753   -0.9310    0.2752 H   0  0  0  0  0
    2.5638    2.2303    0.1336 H   0  0  0  0  0
    5.0233    2.2313   -0.2200 H   0  0  0  0  0
    4.8532   -2.0662   -0.2710 H   0  0  0  0  0
  1  2  1  0  0  0
  1  9  1  0  0  0
  1 10  1  0  0  0
  2  3  2  0  0  0
  2  8  1  0  0  0
  3  4  1  0  0  0
  3 11  1  0  0  0
  4  5  2  0  0  0
  4 12  1  0  0  0
  5  7  1  0  0  0
  5  6  1  0  0  0
  7  8  2  0  0  0
  7 13  1  0  0  0
M  END