337
 OpenBabel11300911213D

 32 32  0  0  0  0  0  0  0  0999 V2000
    1.3865    0.1562   -0.0531 O   0  0  0  0  0
    2.8844    0.2335   -0.0828 P   0  0  0  0  0
    3.5906   -0.6128    1.1007 O   0  0  0  0  0
    3.2007   -1.9699    1.2350 C   0  0  0  0  0
    3.9788   -2.5880    2.3782 C   0  0  0  0  0
    3.5613   -0.4093   -1.4011 O   0  0  0  0  0
    2.9404   -0.1571   -2.6513 C   0  0  0  0  0
    3.7057   -0.8977   -3.7282 C   0  0  0  0  0
    3.6035    1.8692    0.0993 C   0  0  0  0  0
    3.2380    2.9129   -0.9269 C   0  0  0  0  0
    1.9052    3.3227   -1.0695 C   0  0  0  0  0
    1.5564    4.2676   -2.0350 C   0  0  0  0  0
    2.5349    4.8146   -2.8622 C   0  0  0  0  0
    3.8643    4.4201   -2.7231 C   0  0  0  0  0
    4.2158    3.4742   -1.7585 C   0  0  0  0  0
    3.4118   -2.5049    0.3038 H   0  0  0  0  0
    2.1269   -2.0228    1.4397 H   0  0  0  0  0
    5.0559   -2.5131    2.1970 H   0  0  0  0  0
    3.7141   -3.6412    2.5056 H   0  0  0  0  0
    3.7753   -2.0571    3.3137 H   0  0  0  0  0
    2.9488    0.9143   -2.8627 H   0  0  0  0  0
    1.9026   -0.5045   -2.6223 H   0  0  0  0  0
    4.7543   -0.5841   -3.7407 H   0  0  0  0  0
    3.2692   -0.7129   -4.7130 H   0  0  0  0  0
    3.6970   -1.9748   -3.5339 H   0  0  0  0  0
    4.6933    1.7474    0.1244 H   0  0  0  0  0
    3.3244    2.2570    1.0869 H   0  0  0  0  0
    1.1247    2.9032   -0.4365 H   0  0  0  0  0
    0.5193    4.5749   -2.1420 H   0  0  0  0  0
    2.2614    5.5500   -3.6144 H   0  0  0  0  0
    4.6275    4.8489   -3.3671 H   0  0  0  0  0
    5.2585    3.1765   -1.6682 H   0  0  0  0  0
  1  2  2  0  0  0
  2  9  1  0  0  0
  2  6  1  0  0  0
  2  3  1  0  0  0
  3  4  1  0  0  0
  4  5  1  0  0  0
  4 16  1  0  0  0
  4 17  1  0  0  0
  5 18  1  0  0  0
  5 19  1  0  0  0
  5 20  1  0  0  0
  6  7  1  0  0  0
  7  8  1  0  0  0
  7 21  1  0  0  0
  7 22  1  0  0  0
  8 23  1  0  0  0
  8 24  1  0  0  0
  8 25  1  0  0  0
  9 10  1  0  0  0
  9 26  1  0  0  0
  9 27  1  0  0  0
 10 11  2  0  0  0
 10 15  1  0  0  0
 11 12  1  0  0  0
 11 28  1  0  0  0
 12 13  2  0  0  0
 12 29  1  0  0  0
 13 14  1  0  0  0
 13 30  1  0  0  0
 14 15  2  0  0  0
 14 31  1  0  0  0
 15 32  1  0  0  0
M  END