338
 OpenBabel11300911213D

 16 16  0  0  0  0  0  0  0  0999 V2000
    0.9869   -0.0765    0.1568 O   0  0  0  0  0
    2.1718   -0.0404   -0.1689 C   0  0  0  0  0
    2.9830   -1.2914   -0.1467 C   0  0  0  0  0
    4.3361   -1.3085   -0.4843 C   0  0  0  0  0
    5.0025   -2.5213   -0.4330 C   0  0  0  0  0
    4.4194   -3.6844   -0.0760 N   0  0  0  0  0
    3.1096   -3.6404    0.2466 C   0  0  0  0  0
    2.3560   -2.4817    0.2272 C   0  0  0  0  0
    2.8265    1.2486   -0.5921 C   0  0  0  0  0
    4.8795   -0.4199   -0.7808 H   0  0  0  0  0
    6.0572   -2.5933   -0.6853 H   0  0  0  0  0
    2.6679   -4.5918    0.5300 H   0  0  0  0  0
    1.3049   -2.5086    0.4973 H   0  0  0  0  0
    2.0839    2.0525   -0.5702 H   0  0  0  0  0
    3.2031    1.1647   -1.6145 H   0  0  0  0  0
    3.6303    1.5097    0.1008 H   0  0  0  0  0
  1  2  2  0  0  0
  2  9  1  0  0  0
  2  3  1  0  0  0
  3  4  2  0  0  0
  3  8  1  0  0  0
  4  5  1  0  0  0
  4 10  1  0  0  0
  5  6  2  0  0  0
  5 11  1  0  0  0
  6  7  1  0  0  0
  7  8  2  0  0  0
  7 12  1  0  0  0
  8 13  1  0  0  0
  9 14  1  0  0  0
  9 15  1  0  0  0
  9 16  1  0  0  0
M  END