339
 OpenBabel11300911583D

 18 18  0  0  0  0  0  0  0  0999 V2000
    3.2483   -0.6414   -0.4113 O   0  0  0  0  0
    2.6079    0.3594   -0.1316 C   0  0  0  0  0
    1.3031    0.3912    0.2374 O   0  0  0  0  0
    0.6811   -0.8939    0.2777 C   0  0  0  0  0
    3.1791    1.7346   -0.1610 C   0  0  0  0  0
    2.4321    2.8690    0.1892 C   0  0  0  0  0
    3.0171    4.1387    0.1405 C   0  0  0  0  0
    4.3462    4.2769   -0.2571 C   0  0  0  0  0
    5.0987    3.1570   -0.6058 C   0  0  0  0  0
    5.0611    5.8401   -0.3178 Cl  0  0  0  0  0
    4.5162    1.8871   -0.5576 C   0  0  0  0  0
   -0.3608   -0.7563    0.5797 H   0  0  0  0  0
    1.1739   -1.5355    1.0148 H   0  0  0  0  0
    0.6958   -1.3582   -0.7134 H   0  0  0  0  0
    1.3943    2.7808    0.5017 H   0  0  0  0  0
    2.4307    5.0126    0.4130 H   0  0  0  0  0
    6.1352    3.2631   -0.9159 H   0  0  0  0  0
    5.1099    1.0163   -0.8320 H   0  0  0  0  0
  1  2  2  0  0  0
  2  5  1  0  0  0
  2  3  1  0  0  0
  3  4  1  0  0  0
  4 12  1  0  0  0
  4 13  1  0  0  0
  4 14  1  0  0  0
  5  6  2  0  0  0
  5 11  1  0  0  0
  6  7  1  0  0  0
  6 15  1  0  0  0
  7  8  2  0  0  0
  7 16  1  0  0  0
  8  9  1  0  0  0
  8 10  1  0  0  0
  9 11  2  0  0  0
  9 17  1  0  0  0
 11 18  1  0  0  0
M  END