340
 OpenBabel11300911583D

 25 25  0  0  0  0  0  0  0  0999 V2000
    1.0099    0.9734   -0.2801 O   0  0  0  0  0
   -0.0156    0.0684   -0.3297 C   0  0  0  0  0
    0.0173   -1.2380    0.1614 C   0  0  0  0  0
   -1.1011   -2.0662    0.0327 C   0  0  0  0  0
   -2.2591   -1.5933   -0.5821 C   0  0  0  0  0
   -2.3006   -0.2880   -1.0679 C   0  0  0  0  0
   -1.1816    0.5375   -0.9406 C   0  0  0  0  0
    2.2307    0.5314    0.3128 C   0  0  0  0  0
    3.2620    1.6485    0.1712 C   0  0  0  0  0
    4.5954    1.2567    0.8022 C   0  0  0  0  0
    5.6472    2.3363    0.6083 C   0  0  0  0  0
    0.8971   -1.6451    0.6485 H   0  0  0  0  0
   -1.0678   -3.0843    0.4128 H   0  0  0  0  0
   -3.1263   -2.2392   -0.6823 H   0  0  0  0  0
   -3.2001    0.0880   -1.5468 H   0  0  0  0  0
   -1.2168    1.5548   -1.3228 H   0  0  0  0  0
    2.6015   -0.3625   -0.2033 H   0  0  0  0  0
    2.0687    0.3119    1.3751 H   0  0  0  0  0
    2.8759    2.5651    0.6342 H   0  0  0  0  0
    3.3969    1.8825   -0.8923 H   0  0  0  0  0
    4.9577    0.3213    0.3602 H   0  0  0  0  0
    4.4581    1.0760    1.8746 H   0  0  0  0  0
    5.8502    2.4984   -0.4554 H   0  0  0  0  0
    6.5848    2.0422    1.0910 H   0  0  0  0  0
    5.3227    3.2860    1.0456 H   0  0  0  0  0
  1  8  1  0  0  0
  1  2  1  0  0  0
  2  3  2  0  0  0
  2  7  1  0  0  0
  3  4  1  0  0  0
  3 12  1  0  0  0
  4  5  2  0  0  0
  4 13  1  0  0  0
  5  6  1  0  0  0
  5 14  1  0  0  0
  6  7  2  0  0  0
  6 15  1  0  0  0
  7 16  1  0  0  0
  8  9  1  0  0  0
  8 17  1  0  0  0
  8 18  1  0  0  0
  9 10  1  0  0  0
  9 19  1  0  0  0
  9 20  1  0  0  0
 10 11  1  0  0  0
 10 21  1  0  0  0
 10 22  1  0  0  0
 11 23  1  0  0  0
 11 24  1  0  0  0
 11 25  1  0  0  0
M  END