342
 OpenBabel11300911213D

 14 14  0  0  0  0  0  0  0  0999 V2000
    0.9753    0.0851   -0.0026 O   0  0  0  0  0
    2.3479    0.0240   -0.0002 C   0  0  0  0  0
    3.0457   -1.1842    0.0013 C   0  0  0  0  0
    4.4511   -1.1731    0.0039 C   0  0  0  0  0
    5.1434    0.0574    0.0047 C   0  0  0  0  0
    4.4277    1.2688    0.0035 C   0  0  0  0  0
    5.2325    2.8049    0.0049 Cl  0  0  0  0  0
    6.8853    0.0794    0.0080 Cl  0  0  0  0  0
    5.3224   -2.6787    0.0054 Cl  0  0  0  0  0
    2.1238   -2.6521    0.0003 Cl  0  0  0  0  0
    3.0308    1.2381    0.0009 C   0  0  0  0  0
    2.2946    2.3940   -0.0005 O   0  0  0  0  0
    0.6372   -0.8332   -0.0032 H   0  0  0  0  0
    1.3549    2.1195   -0.0020 H   0  0  0  0  0
  1  2  1  0  0  0
  1 13  1  0  0  0
  2  3  2  0  0  0
  2 11  1  0  0  0
  3  4  1  0  0  0
  3 10  1  0  0  0
  4  5  2  0  0  0
  4  9  1  0  0  0
  5  6  1  0  0  0
  5  8  1  0  0  0
  6 11  2  0  0  0
  6  7  1  0  0  0
 11 12  1  0  0  0
 12 14  1  0  0  0
M  END