344
                    3D
 Structure written by MMmdl.
 28 29  0  0  1  0            999 V2000
   -0.0028    2.2204   -0.4013 C   0  0  0  0  0  0
    0.5039    3.4819   -0.0258 C   0  0  0  0  0  0
    0.1017    4.6445   -0.7116 C   0  0  0  0  0  0
   -0.8115    4.5506   -1.7790 C   0  0  0  0  0  0
   -1.3214    3.2942   -2.1592 C   0  0  0  0  0  0
   -0.9185    2.1318   -1.4725 C   0  0  0  0  0  0
    0.4494    0.9843    0.3572 C   0  0  0  0  0  0
   -0.1388   -0.2183   -0.1257 O   0  0  0  0  0  0
    0.2015   -1.4043    0.4909 C   0  0  0  0  0  0
   -0.3954   -2.5811   -0.0069 C   0  0  0  0  0  0
   -0.1055   -3.8376    0.5625 C   0  0  0  0  0  0
    0.7912   -3.9264    1.6430 C   0  0  0  0  0  0
    1.3941   -2.7609    2.1499 C   0  0  0  0  0  0
    1.1035   -1.5063    1.5800 C   0  0  0  0  0  0
   -0.7025   -4.9919    0.0606 N   0  0  0  0  0  0
    1.2048    3.5604    0.7922 H   0  0  0  0  0  0
    0.4937    5.6081   -0.4190 H   0  0  0  0  0  0
   -1.1209    5.4418   -2.3059 H   0  0  0  0  0  0
   -2.0224    3.2210   -2.9783 H   0  0  0  0  0  0
   -1.3160    1.1733   -1.7727 H   0  0  0  0  0  0
    0.1931    1.1243    1.4085 H   0  0  0  0  0  0
    1.5358    0.9216    0.2775 H   0  0  0  0  0  0
   -1.0830   -2.5071   -0.8364 H   0  0  0  0  0  0
    1.0221   -4.8829    2.0886 H   0  0  0  0  0  0
    2.0821   -2.8314    2.9793 H   0  0  0  0  0  0
    1.5875   -0.6383    1.9990 H   0  0  0  0  0  0
   -0.5109   -5.9029    0.4513 H   0  0  0  0  0  0
   -1.3500   -4.9593   -0.7139 H   0  0  0  0  0  0
  1  2  2  0  0  0
  1  6  1  0  0  0
  1  7  1  0  0  0
  2  3  1  0  0  0
  2 16  1  0  0  0
  3  4  2  0  0  0
  3 17  1  0  0  0
  4  5  1  0  0  0
  4 18  1  0  0  0
  5  6  2  0  0  0
  5 19  1  0  0  0
  6 20  1  0  0  0
  7  8  1  0  0  0
  7 21  1  0  0  0
  7 22  1  0  0  0
  8  9  1  0  0  0
  9 10  1  0  0  0
  9 14  2  0  0  0
 10 11  2  0  0  0
 10 23  1  0  0  0
 11 12  1  0  0  0
 11 15  1  0  0  0
 12 13  2  0  0  0
 12 24  1  0  0  0
 13 14  1  0  0  0
 13 25  1  0  0  0
 14 26  1  0  0  0
 15 27  1  0  0  0
 15 28  1  0  0  0
M  END