345
 OpenBabel11300911583D

 31 32  0  0  0  0  0  0  0  0999 V2000
    4.6252   -2.6538   -2.0636 O   0  0  0  0  0
    3.9748   -2.1266   -1.1703 C   0  0  0  0  0
    4.4809   -1.4386   -0.0794 O   0  0  0  0  0
    5.8639   -1.3882    0.1449 C   0  0  0  0  0
    6.3037   -1.5226    1.4500 C   0  0  0  0  0
    5.4907   -1.7352    2.5344 O   0  0  0  0  0
    6.3637   -1.6050    3.6910 C   0  0  0  0  0
    7.8316   -1.7053    3.2171 C   0  0  0  0  0
    6.0735   -0.2489    4.3478 C   0  0  0  0  0
    6.0155   -2.7359    4.6591 C   0  0  0  0  0
    7.6502   -1.4591    1.7684 C   0  0  0  0  0
    8.6033   -1.2463    0.7872 C   0  0  0  0  0
    8.1710   -1.0739   -0.5322 C   0  0  0  0  0
    6.8036   -1.1356   -0.8554 C   0  0  0  0  0
    2.6119   -2.1276   -1.0963 N   0  0  0  0  0
    1.7675   -2.7289   -2.0928 C   0  0  0  0  0
    8.2479   -2.7073    3.3699 H   0  0  0  0  0
    8.4820   -0.9661    3.6942 H   0  0  0  0  0
    6.2820    0.5776    3.6586 H   0  0  0  0  0
    6.6748   -0.1042    5.2515 H   0  0  0  0  0
    5.0144   -0.1662    4.6170 H   0  0  0  0  0
    6.1419   -3.7131    4.1785 H   0  0  0  0  0
    4.9640   -2.6780    4.9645 H   0  0  0  0  0
    6.6413   -2.7051    5.5572 H   0  0  0  0  0
    9.6605   -1.2122    1.0284 H   0  0  0  0  0
    8.8989   -0.8969   -1.3219 H   0  0  0  0  0
    6.4953   -0.9930   -1.8872 H   0  0  0  0  0
    2.2081   -1.6402   -0.3092 H   0  0  0  0  0
    2.3230   -3.4385   -2.7095 H   0  0  0  0  0
    1.3620   -1.9337   -2.7223 H   0  0  0  0  0
    0.9473   -3.2415   -1.5847 H   0  0  0  0  0
  1  2  2  0  0  0
  2 15  1  0  0  0
  2  3  1  0  0  0
  3  4  1  0  0  0
  4 14  1  0  0  0
  4  5  2  0  0  0
  5  6  1  0  0  0
  5 11  1  0  0  0
  6  7  1  0  0  0
  7  8  1  0  0  0
  7 10  1  0  0  0
  7  9  1  0  0  0
  8 11  1  0  0  0
  8 17  1  0  0  0
  8 18  1  0  0  0
  9 19  1  0  0  0
  9 20  1  0  0  0
  9 21  1  0  0  0
 10 22  1  0  0  0
 10 23  1  0  0  0
 10 24  1  0  0  0
 11 12  2  0  0  0
 12 13  1  0  0  0
 12 25  1  0  0  0
 13 14  2  0  0  0
 13 26  1  0  0  0
 14 27  1  0  0  0
 15 16  1  0  0  0
 15 28  1  0  0  0
 16 29  1  0  0  0
 16 30  1  0  0  0
 16 31  1  0  0  0
M  END