346
 OpenBabel11300911213D

 18 17  0  0  0  0  0  0  0  0999 V2000
    1.0429    0.1248    0.0069 O   0  0  0  0  0
    0.5609    1.4772    0.0185 C   0  0  0  0  0
    0.9879    2.2167    1.2908 C   0  0  0  0  0
    1.0045    2.2435   -1.2327 C   0  0  0  0  0
   -0.9698    1.3562    0.0072 C   0  0  0  0  0
    2.4506   -0.0566    0.0174 C   0  0  0  0  0
    0.7602    1.6226    2.1836 H   0  0  0  0  0
    0.4838    3.1860    1.3796 H   0  0  0  0  0
    2.0670    2.4072    1.3036 H   0  0  0  0  0
    0.7884    1.6682   -2.1403 H   0  0  0  0  0
    2.0833    2.4339   -1.2273 H   0  0  0  0  0
    0.5013    3.2141   -1.3073 H   0  0  0  0  0
   -1.3106    0.8075   -0.8789 H   0  0  0  0  0
   -1.4565    2.3369    0.0144 H   0  0  0  0  0
   -1.3220    0.7888    0.8767 H   0  0  0  0  0
    2.6491   -1.1324    0.0039 H   0  0  0  0  0
    2.8985    0.3528    0.9260 H   0  0  0  0  0
    2.9157    0.3786   -0.8702 H   0  0  0  0  0
  1  6  1  0  0  0
  1  2  1  0  0  0
  2  5  1  0  0  0
  2  4  1  0  0  0
  2  3  1  0  0  0
  3  7  1  0  0  0
  3  8  1  0  0  0
  3  9  1  0  0  0
  4 10  1  0  0  0
  4 11  1  0  0  0
  4 12  1  0  0  0
  5 13  1  0  0  0
  5 14  1  0  0  0
  5 15  1  0  0  0
  6 16  1  0  0  0
  6 17  1  0  0  0
  6 18  1  0  0  0
M  END