349
 OpenBabel11300911213D

 14 14  0  0  0  0  0  0  0  0999 V2000
    0.9239    0.0077   -0.0039 O   0  0  0  0  0
    2.2928    0.0139   -0.0005 C   0  0  0  0  0
    2.9734    1.2355    0.0017 C   0  0  0  0  0
    1.9602    3.0676    0.0006 I   0  0  0  0  0
    4.3725    1.2622    0.0053 C   0  0  0  0  0
    5.0940    0.0640    0.0059 C   0  0  0  0  0
    6.5284    0.0903    0.0096 C   0  0  0  0  0
    7.6884    0.1075    0.0124 N   0  0  0  0  0
    4.4176   -1.1604    0.0037 C   0  0  0  0  0
    3.0197   -1.1822    0.0000 C   0  0  0  0  0
    2.0580   -3.0395   -0.0037 I   0  0  0  0  0
    0.6198   -0.9174   -0.0051 H   0  0  0  0  0
    4.9051    2.2125    0.0071 H   0  0  0  0  0
    4.9859   -2.0896    0.0041 H   0  0  0  0  0
  1  2  1  0  0  0
  1 12  1  0  0  0
  2 10  1  0  0  0
  2  3  2  0  0  0
  3  5  1  0  0  0
  3  4  1  0  0  0
  5  6  2  0  0  0
  5 13  1  0  0  0
  6  9  1  0  0  0
  6  7  1  0  0  0
  7  8  3  0  0  0
  9 10  2  0  0  0
  9 14  1  0  0  0
 10 11  1  0  0  0
M  END