353
 OpenBabel11300911213D

 42 42  0  0  0  0  0  0  0  0999 V2000
    3.8243    0.9831   -4.7222 C   0  0  0  0  0
    3.8179    0.7301   -3.2222 C   0  0  0  0  0
    4.3772    1.9303   -2.4707 C   0  0  0  0  0
    4.3868    1.7259   -0.9579 C   0  0  0  0  0
    4.9398    2.9068   -0.3562 O   0  0  0  0  0
    6.2945    2.9424   -0.3061 C   0  0  0  0  0
    7.0498    2.0047   -0.5034 O   0  0  0  0  0
    6.7566    4.3428   -0.1298 C   0  0  0  0  0
    5.8919    5.3810    0.2425 C   0  0  0  0  0
    6.3640    6.6954    0.3185 C   0  0  0  0  0
    7.7044    6.9797    0.0220 C   0  0  0  0  0
    8.5680    5.9401   -0.3455 C   0  0  0  0  0
    8.0979    4.6277   -0.4165 C   0  0  0  0  0
    8.2691    8.3498    0.1160 C   0  0  0  0  0
    9.3904    8.6428   -0.2692 O   0  0  0  0  0
    7.4103    9.1651    0.7744 O   0  0  0  0  0
    7.9665   10.4154    1.2090 C   0  0  0  0  0
    8.6972   10.1872    2.5293 C   0  0  0  0  0
    9.3016   11.4687    3.0877 C   0  0  0  0  0
   10.0347   11.1980    4.3926 C   0  0  0  0  0
    3.4292    0.1148   -5.2576 H   0  0  0  0  0
    4.8407    1.1726   -5.0833 H   0  0  0  0  0
    3.2058    1.8506   -4.9751 H   0  0  0  0  0
    4.4190   -0.1597   -3.0031 H   0  0  0  0  0
    2.7936    0.5243   -2.8921 H   0  0  0  0  0
    3.7929    2.8300   -2.7038 H   0  0  0  0  0
    5.3952    2.1430   -2.8204 H   0  0  0  0  0
    4.9410    0.8271   -0.6635 H   0  0  0  0  0
    3.3643    1.6171   -0.5809 H   0  0  0  0  0
    4.8463    5.1829    0.4681 H   0  0  0  0  0
    5.6756    7.4871    0.6052 H   0  0  0  0  0
    9.6121    6.1469   -0.5763 H   0  0  0  0  0
    8.7790    3.8311   -0.7119 H   0  0  0  0  0
    7.1305   11.1085    1.3516 H   0  0  0  0  0
    8.6204   10.8481    0.4425 H   0  0  0  0  0
    9.4845    9.4359    2.3907 H   0  0  0  0  0
    7.9978    9.7504    3.2536 H   0  0  0  0  0
    8.5132   12.2097    3.2607 H   0  0  0  0  0
   10.0021   11.8984    2.3623 H   0  0  0  0  0
    9.3558   10.7823    5.1444 H   0  0  0  0  0
   10.4583   12.1246    4.7903 H   0  0  0  0  0
   10.8534   10.4866    4.2412 H   0  0  0  0  0
  1  2  1  0  0  0
  1 21  1  0  0  0
  1 22  1  0  0  0
  1 23  1  0  0  0
  2  3  1  0  0  0
  2 24  1  0  0  0
  2 25  1  0  0  0
  3  4  1  0  0  0
  3 26  1  0  0  0
  3 27  1  0  0  0
  4  5  1  0  0  0
  4 28  1  0  0  0
  4 29  1  0  0  0
  5  6  1  0  0  0
  6  8  1  0  0  0
  6  7  2  0  0  0
  8  9  2  0  0  0
  8 13  1  0  0  0
  9 10  1  0  0  0
  9 30  1  0  0  0
 10 11  2  0  0  0
 10 31  1  0  0  0
 11 12  1  0  0  0
 11 14  1  0  0  0
 12 13  2  0  0  0
 12 32  1  0  0  0
 13 33  1  0  0  0
 14 16  1  0  0  0
 14 15  2  0  0  0
 16 17  1  0  0  0
 17 18  1  0  0  0
 17 34  1  0  0  0
 17 35  1  0  0  0
 18 19  1  0  0  0
 18 36  1  0  0  0
 18 37  1  0  0  0
 19 20  1  0  0  0
 19 38  1  0  0  0
 19 39  1  0  0  0
 20 40  1  0  0  0
 20 41  1  0  0  0
 20 42  1  0  0  0
M  END