354
 OpenBabel11300911583D

 25 26  0  0  0  0  0  0  0  0999 V2000
    4.1162    2.4193   -1.5374 O   0  0  0  0  0
    3.7191    3.1614   -2.6246 C   0  0  0  0  0
    4.5598    4.0415   -3.3110 C   0  0  0  0  0
    4.0845    4.7155   -4.4384 C   0  0  0  0  0
    2.7878    4.4845   -4.8863 C   0  0  0  0  0
    2.3704    5.1559   -5.9970 O   0  0  0  0  0
    1.9529    3.5877   -4.2269 C   0  0  0  0  0
    2.4253    2.9215   -3.0947 C   0  0  0  0  0
    4.8883    3.0097   -0.5638 C   0  0  0  0  0
    5.8359    2.1861    0.0487 C   0  0  0  0  0
    6.6296    2.6813    1.0836 C   0  0  0  0  0
    6.4642    3.9949    1.5070 C   0  0  0  0  0
    7.2608    4.4387    2.5203 O   0  0  0  0  0
    5.5093    4.8203    0.9190 C   0  0  0  0  0
    4.7086    4.3210   -0.1126 C   0  0  0  0  0
    5.5833    4.2043   -2.9856 H   0  0  0  0  0
    4.7278    5.4096   -4.9725 H   0  0  0  0  0
    1.4663    4.8719   -6.2100 H   0  0  0  0  0
    0.9451    3.3905   -4.5773 H   0  0  0  0  0
    1.7867    2.2098   -2.5776 H   0  0  0  0  0
    5.9543    1.1564   -0.2783 H   0  0  0  0  0
    7.3682    2.0434    1.5608 H   0  0  0  0  0
    7.0353    5.3638    2.7105 H   0  0  0  0  0
    5.3672    5.8431    1.2529 H   0  0  0  0  0
    3.9458    4.9592   -0.5493 H   0  0  0  0  0
  1  9  1  0  0  0
  1  2  1  0  0  0
  2  3  2  0  0  0
  2  8  1  0  0  0
  3  4  1  0  0  0
  3 16  1  0  0  0
  4  5  2  0  0  0
  4 17  1  0  0  0
  5  7  1  0  0  0
  5  6  1  0  0  0
  6 18  1  0  0  0
  7  8  2  0  0  0
  7 19  1  0  0  0
  8 20  1  0  0  0
  9 10  2  0  0  0
  9 15  1  0  0  0
 10 11  1  0  0  0
 10 21  1  0  0  0
 11 12  2  0  0  0
 11 22  1  0  0  0
 12 14  1  0  0  0
 12 13  1  0  0  0
 13 23  1  0  0  0
 14 15  2  0  0  0
 14 24  1  0  0  0
 15 25  1  0  0  0
M  END