355
 OpenBabel11300911213D

 16 16  0  0  0  0  0  0  0  0999 V2000
    2.2519   -0.8894    0.7160 N   0  0  0  0  0
    2.5606   -0.1257   -0.3736 C   0  0  0  0  0
    2.2923   -0.4670   -1.5155 O   0  0  0  0  0
    3.2380    1.1500   -0.0987 C   0  0  0  0  0
    2.5373    2.3542   -0.2361 C   0  0  0  0  0
    0.8594    2.4138   -0.6483 Cl  0  0  0  0  0
    3.1860    3.5711   -0.0029 C   0  0  0  0  0
    4.5325    3.5909    0.3623 C   0  0  0  0  0
    5.2325    2.3921    0.4964 C   0  0  0  0  0
    4.5897    1.1716    0.2647 C   0  0  0  0  0
    5.5296   -0.2686    0.4426 Cl  0  0  0  0  0
    2.5061   -0.6473    1.6627 H   0  0  0  0  0
    1.8075   -1.7836    0.5476 H   0  0  0  0  0
    2.6460    4.5105   -0.1050 H   0  0  0  0  0
    5.0352    4.5395    0.5389 H   0  0  0  0  0
    6.2840    2.4164    0.7762 H   0  0  0  0  0
  1  2  1  0  0  0
  1 12  1  0  0  0
  1 13  1  0  0  0
  2  4  1  0  0  0
  2  3  2  0  0  0
  4  5  2  0  0  0
  4 10  1  0  0  0
  5  7  1  0  0  0
  5  6  1  0  0  0
  7  8  2  0  0  0
  7 14  1  0  0  0
  8  9  1  0  0  0
  8 15  1  0  0  0
  9 10  2  0  0  0
  9 16  1  0  0  0
 10 11  1  0  0  0
M  END