356
 OpenBabel11300911593D

 34 33  0  0  0  0  0  0  0  0999 V2000
    0.9236   -0.0527   -0.0242 N   0  0  0  0  0
    2.3811   -0.0473    0.0165 C   0  0  0  0  0
    2.9084    1.3862   -0.0254 C   0  0  0  0  0
    4.4377    1.4138    0.0169 C   0  0  0  0  0
    4.9701    2.8475   -0.0091 C   0  0  0  0  0
    6.4993    2.8729    0.0154 C   0  0  0  0  0
    7.0336    4.3062    0.0070 C   0  0  0  0  0
    8.5630    4.3279    0.0124 C   0  0  0  0  0
    9.1009    5.7599    0.0200 C   0  0  0  0  0
   10.6293    5.7785    0.0073 C   0  0  0  0  0
   11.1696    7.1991    0.0250 C   0  0  0  0  0
    0.5898   -1.0148   -0.0463 H   0  0  0  0  0
    0.6026    0.3813   -0.8882 H   0  0  0  0  0
    2.7698   -0.6198   -0.8342 H   0  0  0  0  0
    2.7145   -0.5449    0.9332 H   0  0  0  0  0
    2.5084    1.9527    0.8244 H   0  0  0  0  0
    2.5604    1.8845   -0.9386 H   0  0  0  0  0
    4.8385    0.8569   -0.8391 H   0  0  0  0  0
    4.7898    0.9086    0.9247 H   0  0  0  0  0
    4.5788    3.3999    0.8539 H   0  0  0  0  0
    4.6092    3.3579   -0.9106 H   0  0  0  0  0
    6.8886    2.3302   -0.8546 H   0  0  0  0  0
    6.8613    2.3520    0.9100 H   0  0  0  0  0
    6.6546    4.8442    0.8845 H   0  0  0  0  0
    6.6622    4.8324   -0.8806 H   0  0  0  0  0
    8.9401    3.7986   -0.8711 H   0  0  0  0  0
    8.9355    3.7919    0.8939 H   0  0  0  0  0
    8.7337    6.2851    0.9104 H   0  0  0  0  0
    8.7195    6.3011   -0.8546 H   0  0  0  0  0
   10.9998    5.2643   -0.8870 H   0  0  0  0  0
   11.0160    5.2359    0.8774 H   0  0  0  0  0
   10.8237    7.7622   -0.8480 H   0  0  0  0  0
   12.2643    7.1886    0.0103 H   0  0  0  0  0
   10.8475    7.7304    0.9266 H   0  0  0  0  0
  1  2  1  0  0  0
  1 12  1  0  0  0
  1 13  1  0  0  0
  2  3  1  0  0  0
  2 14  1  0  0  0
  2 15  1  0  0  0
  3  4  1  0  0  0
  3 16  1  0  0  0
  3 17  1  0  0  0
  4  5  1  0  0  0
  4 18  1  0  0  0
  4 19  1  0  0  0
  5  6  1  0  0  0
  5 20  1  0  0  0
  5 21  1  0  0  0
  6  7  1  0  0  0
  6 22  1  0  0  0
  6 23  1  0  0  0
  7  8  1  0  0  0
  7 24  1  0  0  0
  7 25  1  0  0  0
  8  9  1  0  0  0
  8 26  1  0  0  0
  8 27  1  0  0  0
  9 10  1  0  0  0
  9 28  1  0  0  0
  9 29  1  0  0  0
 10 11  1  0  0  0
 10 30  1  0  0  0
 10 31  1  0  0  0
 11 32  1  0  0  0
 11 33  1  0  0  0
 11 34  1  0  0  0
M  END