358
 OpenBabel11300911213D

  9  9  0  0  0  0  0  0  0  0999 V2000
    1.0759   -0.0373   -0.0051 Br  0  0  0  0  0
    2.9412    0.0163   -0.0016 C   0  0  0  0  0
    3.6497    1.1225   -0.0031 N   0  0  0  0  0
    4.9603    0.7087    0.0007 C   0  0  0  0  0
    6.3923    1.9325    0.0005 Br  0  0  0  0  0
    5.0327   -0.6635    0.0046 C   0  0  0  0  0
    6.5351   -1.7535    0.0109 Br  0  0  0  0  0
    3.7383   -1.0937    0.0029 N   0  0  0  0  0
    3.4190   -2.0500    0.0048 H   0  0  0  0  0
  1  2  1  0  0  0
  2  8  1  0  0  0
  2  3  2  0  0  0
  3  4  1  0  0  0
  4  6  2  0  0  0
  4  5  1  0  0  0
  6  8  1  0  0  0
  6  7  1  0  0  0
  8  9  1  0  0  0
M  END