359
 OpenBabel11300911593D

 35 36  0  0  0  0  0  0  0  0999 V2000
    0.9021    2.0505    1.4239 C   0  0  0  0  0
    2.4016    2.2595    1.4669 C   0  0  0  0  0
    2.9321    2.0537    0.1651 O   0  0  0  0  0
    4.5508    2.1265   -0.0403 P   0  0  0  0  0
    5.4717    0.6354    0.8332 S   0  0  0  0  0
    4.5977    2.0410   -1.6659 O   0  0  0  0  0
    5.7319    2.0475   -2.4316 C   0  0  0  0  0
    5.6099    1.4803   -3.7031 C   0  0  0  0  0
    6.7123    1.4214   -4.5611 C   0  0  0  0  0
    7.9386    1.9489   -4.1412 C   0  0  0  0  0
    8.0605    2.5382   -2.8765 C   0  0  0  0  0
    6.9531    2.5840   -2.0239 C   0  0  0  0  0
    9.1077    1.8854   -5.0274 N   0  0  0  0  0
   10.1698    2.3743   -4.6176 O   0  0  0  0  0
    8.9613    1.3483   -6.1358 O   0  0  0  0  0
    4.9290    3.8386    0.3370 C   0  0  0  0  0
    5.8064    4.1741    1.3800 C   0  0  0  0  0
    6.1109    5.5085    1.6502 C   0  0  0  0  0
    5.5374    6.5232    0.8871 C   0  0  0  0  0
    4.6551    6.2072   -0.1435 C   0  0  0  0  0
    4.3507    4.8735   -0.4162 C   0  0  0  0  0
    0.4525    2.2636    2.3982 H   0  0  0  0  0
    0.6655    1.0179    1.1468 H   0  0  0  0  0
    0.4408    2.6982    0.6713 H   0  0  0  0  0
    2.8526    1.5583    2.1747 H   0  0  0  0  0
    2.6204    3.2799    1.7939 H   0  0  0  0  0
    4.6560    1.0654   -4.0223 H   0  0  0  0  0
    6.5999    0.9598   -5.5400 H   0  0  0  0  0
    9.0051    2.9598   -2.5378 H   0  0  0  0  0
    7.0883    3.0468   -1.0530 H   0  0  0  0  0
    6.2679    3.3976    1.9876 H   0  0  0  0  0
    6.7984    5.7571    2.4554 H   0  0  0  0  0
    5.7778    7.5626    1.0971 H   0  0  0  0  0
    4.2063    7.0006   -0.7366 H   0  0  0  0  0
    3.6607    4.6371   -1.2251 H   0  0  0  0  0
  1  2  1  0  0  0
  1 22  1  0  0  0
  1 23  1  0  0  0
  1 24  1  0  0  0
  2  3  1  0  0  0
  2 25  1  0  0  0
  2 26  1  0  0  0
  3  4  1  0  0  0
  4 16  1  0  0  0
  4  6  1  0  0  0
  4  5  2  0  0  0
  6  7  1  0  0  0
  7  8  2  0  0  0
  7 12  1  0  0  0
  8  9  1  0  0  0
  8 27  1  0  0  0
  9 10  2  0  0  0
  9 28  1  0  0  0
 10 11  1  0  0  0
 10 13  1  0  0  0
 11 12  2  0  0  0
 11 29  1  0  0  0
 12 30  1  0  0  0
 13 15  2  0  0  0
 13 14  2  0  0  0
 16 17  2  0  0  0
 16 21  1  0  0  0
 17 18  1  0  0  0
 17 31  1  0  0  0
 18 19  2  0  0  0
 18 32  1  0  0  0
 19 20  1  0  0  0
 19 33  1  0  0  0
 20 21  2  0  0  0
 20 34  1  0  0  0
 21 35  1  0  0  0
M  END