360
 OpenBabel11300911593D

 14 13  0  0  0  0  0  0  0  0999 V2000
    0.9694    0.0494    0.1272 O   0  0  0  0  0
    2.3889   -0.0178   -0.0374 C   0  0  0  0  0
    2.6650   -0.8382   -1.2918 C   0  0  0  0  0
    2.9610    1.4028   -0.1264 C   0  0  0  0  0
    4.4278    1.4245   -0.0285 C   0  0  0  0  0
    5.6262    1.4476    0.0512 C   0  0  0  0  0
    0.7947    0.4478    0.9974 H   0  0  0  0  0
    2.7956   -0.5459    0.8334 H   0  0  0  0  0
    2.2298   -0.3601   -2.1763 H   0  0  0  0  0
    2.1982   -1.8260   -1.2097 H   0  0  0  0  0
    3.7370   -0.9768   -1.4592 H   0  0  0  0  0
    2.5384    2.0128    0.6820 H   0  0  0  0  0
    2.6327    1.8820   -1.0568 H   0  0  0  0  0
    6.6896    1.4700    0.1196 H   0  0  0  0  0
  1  2  1  0  0  0
  1  7  1  0  0  0
  2  4  1  0  0  0
  2  3  1  0  0  0
  2  8  1  0  0  0
  3  9  1  0  0  0
  3 10  1  0  0  0
  3 11  1  0  0  0
  4  5  1  0  0  0
  4 12  1  0  0  0
  4 13  1  0  0  0
  5  6  3  0  0  0
  6 14  1  0  0  0
M  END