362
 OpenBabel11300911593D

 11 11  0  0  0  0  0  0  0  0999 V2000
   -0.6786    1.1807   -0.0013 N   0  0  0  0  0
   -1.3181   -0.0074   -0.0009 C   0  0  0  0  0
   -0.6800   -1.2428    0.0004 C   0  0  0  0  0
    0.7232   -1.2382    0.0004 C   0  0  0  0  0
    1.4249   -0.0230   -0.0007 C   0  0  0  0  0
    3.1556    0.0319   -0.0021 Cl  0  0  0  0  0
    1.5963   -2.7448    0.0020 Cl  0  0  0  0  0
   -1.5882   -2.7171    0.0020 Cl  0  0  0  0  0
   -3.0303    0.1761   -0.0028 Cl  0  0  0  0  0
    0.6704    1.1451   -0.0010 C   0  0  0  0  0
    1.3623    2.7215   -0.0006 Cl  0  0  0  0  0
  1  2  2  0  0  0
  1 10  1  0  0  0
  2  3  1  0  0  0
  2  9  1  0  0  0
  3  4  2  0  0  0
  3  8  1  0  0  0
  4  5  1  0  0  0
  4  7  1  0  0  0
  5 10  2  0  0  0
  5  6  1  0  0  0
 10 11  1  0  0  0
M  END