363
                    3D
 Structure written by MMmdl.
 31 31  0  0  1  0            999 V2000
   -1.1850   -1.2022   -2.1890 O   0  0  0  0  0  0
   -0.7999   -0.0252   -1.5108 C   0  0  1  0  0  0
   -1.2276   -0.0685   -0.0159 C   0  0  1  0  0  0
   -0.6194    1.1387    0.7364 C   0  0  0  0  0  0
    0.9051    1.2263    0.5718 C   0  0  0  0  0  0
    1.3011    1.3000   -0.9116 C   0  0  2  0  0  0
    0.7301    0.0852   -1.6633 C   0  0  0  0  0  0
    0.9942    0.1533   -2.7195 H   0  0  0  0  0  0
    1.2003   -0.8254   -1.2867 H   0  0  0  0  0  0
    2.8237    1.4065   -1.0824 C   0  0  0  0  0  0
    3.3333    0.5331   -0.6731 H   0  0  0  0  0  0
    3.2158    2.2880   -0.5741 H   0  0  0  0  0  0
    3.0977    1.4874   -2.1348 H   0  0  0  0  0  0
    0.8575    2.2012   -1.3385 H   0  0  0  0  0  0
    1.3728    0.3596    1.0417 H   0  0  0  0  0  0
    1.2784    2.1027    1.1032 H   0  0  0  0  0  0
   -0.8575    1.0734    1.7986 H   0  0  0  0  0  0
   -1.0651    2.0676    0.3809 H   0  0  0  0  0  0
   -2.7615   -0.1574    0.2548 C   0  0  0  0  0  0
   -3.3509   -1.5577    0.0095 C   0  0  0  0  0  0
   -3.3948   -1.8009   -1.0518 H   0  0  0  0  0  0
   -4.3670   -1.6284    0.3980 H   0  0  0  0  0  0
   -2.7596   -2.3301    0.5017 H   0  0  0  0  0  0
   -3.5973    0.9178   -0.4643 C   0  0  0  0  0  0
   -3.5739    0.7847   -1.5458 H   0  0  0  0  0  0
   -3.2475    1.9251   -0.2417 H   0  0  0  0  0  0
   -4.6420    0.8661   -0.1562 H   0  0  0  0  0  0
   -2.8932    0.0146    1.3239 H   0  0  0  0  0  0
   -0.7744   -0.9592    0.4232 H   0  0  0  0  0  0
   -1.2655    0.8292   -2.0034 H   0  0  0  0  0  0
   -0.9995   -1.0982   -3.1094 H   0  0  0  0  0  0
  1  2  1  0  0  0
  1 31  1  0  0  0
  2  3  1  0  0  0
  2  7  1  0  0  0
  2 30  1  0  0  0
  3  4  1  0  0  0
  3 19  1  0  0  0
  3 29  1  0  0  0
  4  5  1  0  0  0
  4 17  1  0  0  0
  4 18  1  0  0  0
  5  6  1  0  0  0
  5 15  1  0  0  0
  5 16  1  0  0  0
  6  7  1  0  0  0
  6 10  1  0  0  0
  6 14  1  0  0  0
  7  8  1  0  0  0
  7  9  1  0  0  0
 10 11  1  0  0  0
 10 12  1  0  0  0
 10 13  1  0  0  0
 19 20  1  0  0  0
 19 24  1  0  0  0
 19 28  1  0  0  0
 20 21  1  0  0  0
 20 22  1  0  0  0
 20 23  1  0  0  0
 24 25  1  0  0  0
 24 26  1  0  0  0
 24 27  1  0  0  0
M  END