364
 OpenBabel11300911593D

 17 17  0  0  0  0  0  0  0  0999 V2000
    1.7774    0.2566    1.1868 O   0  0  0  0  0
    2.5270    0.0984    0.2261 C   0  0  0  0  0
    3.1666   -1.2238    0.0309 C   0  0  0  0  0
    4.5311   -1.3990   -0.2304 C   0  0  0  0  0
    5.0456   -2.6878   -0.4114 C   0  0  0  0  0
    4.2019   -3.7941   -0.3184 C   0  0  0  0  0
    2.8480   -3.6303   -0.0358 C   0  0  0  0  0
    4.8414   -5.3754   -0.5412 Cl  0  0  0  0  0
    5.6568   -0.0902   -0.2793 Cl  0  0  0  0  0
    2.3309   -2.3466    0.1441 C   0  0  0  0  0
    2.7494    1.1795   -0.7977 C   0  0  0  0  0
    6.1047   -2.8317   -0.6114 H   0  0  0  0  0
    2.1925   -4.4937    0.0504 H   0  0  0  0  0
    1.2743   -2.2203    0.3748 H   0  0  0  0  0
    1.7830    1.6240   -1.0530 H   0  0  0  0  0
    3.1759    0.7770   -1.7199 H   0  0  0  0  0
    3.4062    1.9486   -0.3856 H   0  0  0  0  0
  1  2  2  0  0  0
  2 11  1  0  0  0
  2  3  1  0  0  0
  3  4  2  0  0  0
  3 10  1  0  0  0
  4  5  1  0  0  0
  4  9  1  0  0  0
  5  6  2  0  0  0
  5 12  1  0  0  0
  6  7  1  0  0  0
  6  8  1  0  0  0
  7 10  2  0  0  0
  7 13  1  0  0  0
 10 14  1  0  0  0
 11 15  1  0  0  0
 11 16  1  0  0  0
 11 17  1  0  0  0
M  END