365
 OpenBabel11300911213D

 27 26  0  0  0  0  0  0  0  0999 V2000
    0.9383   -0.0272   -0.0609 N   0  0  0  0  0
    2.0978   -0.0129   -0.0302 C   0  0  0  0  0
    3.5665    0.0028    0.0081 C   0  0  0  0  0
    4.1018    1.4344   -0.0219 C   0  0  0  0  0
    5.6309    1.4579    0.0058 C   0  0  0  0  0
    6.1681    2.8903   -0.0114 C   0  0  0  0  0
    7.6975    2.9086   -0.0007 C   0  0  0  0  0
    8.2416    4.3383   -0.0032 C   0  0  0  0  0
    9.7703    4.3477   -0.0159 C   0  0  0  0  0
   10.3221    5.7642   -0.0080 C   0  0  0  0  0
    3.9594   -0.5603   -0.8463 H   0  0  0  0  0
    3.9133   -0.5051    0.9156 H   0  0  0  0  0
    3.7086    1.9950    0.8358 H   0  0  0  0  0
    3.7427    1.9459   -0.9241 H   0  0  0  0  0
    6.0215    0.9084   -0.8593 H   0  0  0  0  0
    5.9900    0.9426    0.9050 H   0  0  0  0  0
    5.7869    3.4359    0.8603 H   0  0  0  0  0
    5.8010    3.4102   -0.9046 H   0  0  0  0  0
    8.0759    2.3704   -0.8783 H   0  0  0  0  0
    8.0651    2.3788    0.8865 H   0  0  0  0  0
    7.8772    4.8718    0.8832 H   0  0  0  0  0
    7.8636    4.8753   -0.8817 H   0  0  0  0  0
   10.1374    3.8245   -0.9066 H   0  0  0  0  0
   10.1535    3.8081    0.8580 H   0  0  0  0  0
    9.9804    6.3239   -0.8845 H   0  0  0  0  0
   11.4164    5.7441   -0.0234 H   0  0  0  0  0
   10.0051    6.3038    0.8902 H   0  0  0  0  0
  1  2  3  0  0  0
  2  3  1  0  0  0
  3  4  1  0  0  0
  3 11  1  0  0  0
  3 12  1  0  0  0
  4  5  1  0  0  0
  4 13  1  0  0  0
  4 14  1  0  0  0
  5  6  1  0  0  0
  5 15  1  0  0  0
  5 16  1  0  0  0
  6  7  1  0  0  0
  6 17  1  0  0  0
  6 18  1  0  0  0
  7  8  1  0  0  0
  7 19  1  0  0  0
  7 20  1  0  0  0
  8  9  1  0  0  0
  8 21  1  0  0  0
  8 22  1  0  0  0
  9 10  1  0  0  0
  9 23  1  0  0  0
  9 24  1  0  0  0
 10 25  1  0  0  0
 10 26  1  0  0  0
 10 27  1  0  0  0
M  END