366
 OpenBabel11300911593D

 17 17  0  0  0  0  0  0  0  0999 V2000
    0.9754   -0.0023    0.1211 N   0  0  0  0  0
    2.3573   -0.0092   -0.0848 C   0  0  0  0  0
    3.0949    1.1692    0.0580 C   0  0  0  0  0
    4.4887    1.1483   -0.0125 C   0  0  0  0  0
    5.1501   -0.0625   -0.1830 C   0  0  0  0  0
    6.4886   -0.0652   -0.2350 F   0  0  0  0  0
    4.4464   -1.2587   -0.2749 C   0  0  0  0  0
    3.0437   -1.2228   -0.1978 C   0  0  0  0  0
    5.1976   -2.5462   -0.4107 C   0  0  0  0  0
    5.8684   -2.8883    0.7236 F   0  0  0  0  0
    4.3864   -3.6084   -0.6894 F   0  0  0  0  0
    6.1218   -2.5281   -1.4106 F   0  0  0  0  0
    0.5252    0.8801   -0.1028 H   0  0  0  0  0
    0.4862   -0.7930   -0.2874 H   0  0  0  0  0
    2.5885    2.1162    0.2279 H   0  0  0  0  0
    5.0614    2.0657    0.0826 H   0  0  0  0  0
    2.4825   -2.1556   -0.2257 H   0  0  0  0  0
  1  2  1  0  0  0
  1 13  1  0  0  0
  1 14  1  0  0  0
  2  3  2  0  0  0
  2  8  1  0  0  0
  3  4  1  0  0  0
  3 15  1  0  0  0
  4  5  2  0  0  0
  4 16  1  0  0  0
  5  7  1  0  0  0
  5  6  1  0  0  0
  7  8  2  0  0  0
  7  9  1  0  0  0
  8 17  1  0  0  0
  9 12  1  0  0  0
  9 11  1  0  0  0
  9 10  1  0  0  0
M  END