367
 OpenBabel11300911593D

 29 30  0  0  0  0  0  0  0  0999 V2000
    1.1833    0.1987    0.2697 O   0  0  0  0  0
    2.5388   -0.1803   -0.0037 C   0  0  0  0  0
    2.5105   -1.5639   -0.6516 C   0  0  0  0  0
    1.8813   -1.5300   -2.0410 C   0  0  0  0  0
    2.6056   -0.5584   -2.9625 C   0  0  0  0  0
    2.7365    0.8396   -2.3602 C   0  0  0  0  0
    3.2019    0.8997   -0.8887 C   0  0  0  0  0
    4.7098    0.9592   -0.6773 C   0  0  0  0  0
    5.6106    0.0897   -1.3041 C   0  0  0  0  0
    6.9843    0.1773   -1.0578 C   0  0  0  0  0
    7.4795    1.1313   -0.1734 C   0  0  0  0  0
    6.6012    1.9978    0.4677 C   0  0  0  0  0
    5.2295    1.9111    0.2196 C   0  0  0  0  0
    1.2113    1.0053    0.8124 H   0  0  0  0  0
    3.0420   -0.2532    0.9679 H   0  0  0  0  0
    1.9273   -2.2498   -0.0262 H   0  0  0  0  0
    3.5254   -1.9712   -0.7173 H   0  0  0  0  0
    1.9032   -2.5351   -2.4783 H   0  0  0  0  0
    0.8250   -1.2439   -1.9648 H   0  0  0  0  0
    3.5903   -0.9608   -3.2150 H   0  0  0  0  0
    2.0618   -0.4897   -3.9124 H   0  0  0  0  0
    3.3834    1.4553   -2.9958 H   0  0  0  0  0
    1.7398    1.3007   -2.4085 H   0  0  0  0  0
    2.8233    1.8730   -0.5388 H   0  0  0  0  0
    5.2700   -0.6790   -1.9884 H   0  0  0  0  0
    7.6675   -0.5051   -1.5569 H   0  0  0  0  0
    8.5474    1.1961    0.0168 H   0  0  0  0  0
    6.9816    2.7419    1.1624 H   0  0  0  0  0
    4.5652    2.6002    0.7375 H   0  0  0  0  0
  1  2  1  0  0  0
  1 14  1  0  0  0
  2  7  1  0  0  0
  2  3  1  0  0  0
  2 15  1  0  0  0
  3  4  1  0  0  0
  3 16  1  0  0  0
  3 17  1  0  0  0
  4  5  1  0  0  0
  4 18  1  0  0  0
  4 19  1  0  0  0
  5  6  1  0  0  0
  5 20  1  0  0  0
  5 21  1  0  0  0
  6  7  1  0  0  0
  6 22  1  0  0  0
  6 23  1  0  0  0
  7  8  1  0  0  0
  7 24  1  0  0  0
  8  9  2  0  0  0
  8 13  1  0  0  0
  9 10  1  0  0  0
  9 25  1  0  0  0
 10 11  2  0  0  0
 10 26  1  0  0  0
 11 12  1  0  0  0
 11 27  1  0  0  0
 12 13  2  0  0  0
 12 28  1  0  0  0
 13 29  1  0  0  0
M  END