369
 OpenBabel11300911593D

 22 22  0  0  0  0  0  0  0  0999 V2000
    0.9207   -0.0468   -0.3088 O   0  0  0  0  0
    2.2741   -0.0269   -0.1011 C   0  0  0  0  0
    2.9525    1.1811    0.1232 C   0  0  0  0  0
    4.3345    1.1319    0.3442 C   0  0  0  0  0
    5.0172   -0.0833    0.3402 C   0  0  0  0  0
    4.3419   -1.2893    0.1016 C   0  0  0  0  0
    5.1576   -2.5544    0.1180 C   0  0  0  0  0
    2.3071    2.5372    0.0815 C   0  0  0  0  0
    2.9490   -1.2657   -0.1255 C   0  0  0  0  0
    2.1928   -2.5438   -0.3838 C   0  0  0  0  0
    0.5235    0.6923    0.1746 H   0  0  0  0  0
    4.8949    2.0491    0.5133 H   0  0  0  0  0
    6.0911   -0.0858    0.5167 H   0  0  0  0  0
    4.5813   -3.4438   -0.1463 H   0  0  0  0  0
    5.5733   -2.7140    1.1183 H   0  0  0  0  0
    5.9800   -2.4769   -0.6012 H   0  0  0  0  0
    1.2182    2.5019    0.0081 H   0  0  0  0  0
    2.6761    3.0951   -0.7858 H   0  0  0  0  0
    2.5509    3.0961    0.9917 H   0  0  0  0  0
    1.1226   -2.3855   -0.5441 H   0  0  0  0  0
    2.2917   -3.2183    0.4730 H   0  0  0  0  0
    2.5799   -3.0336   -1.2834 H   0  0  0  0  0
  1  2  1  0  0  0
  1 11  1  0  0  0
  2  3  2  0  0  0
  2  9  1  0  0  0
  3  4  1  0  0  0
  3  8  1  0  0  0
  4  5  2  0  0  0
  4 12  1  0  0  0
  5  6  1  0  0  0
  5 13  1  0  0  0
  6  9  2  0  0  0
  6  7  1  0  0  0
  7 14  1  0  0  0
  7 15  1  0  0  0
  7 16  1  0  0  0
  8 17  1  0  0  0
  8 18  1  0  0  0
  8 19  1  0  0  0
  9 10  1  0  0  0
 10 20  1  0  0  0
 10 21  1  0  0  0
 10 22  1  0  0  0
M  END