370
 OpenBabel11300911593D

 36 35  0  0  0  0  0  0  0  0999 V2000
    0.9792   -0.1100   -0.0022 N   0  0  0  0  0
    2.1387   -0.0869    0.0317 C   0  0  0  0  0
    3.6069   -0.0612    0.0742 C   0  0  0  0  0
    4.1334    1.3728    0.0148 C   0  0  0  0  0
    5.6625    1.4064    0.0483 C   0  0  0  0  0
    6.1889    2.8417    0.0021 C   0  0  0  0  0
    7.7182    2.8752    0.0214 C   0  0  0  0  0
    8.2425    4.3118   -0.0081 C   0  0  0  0  0
    9.7717    4.3492   -0.0038 C   0  0  0  0  0
   10.2898    5.7883   -0.0156 C   0  0  0  0  0
   11.8186    5.8337   -0.0249 C   0  0  0  0  0
   12.3290    7.2746   -0.0169 C   0  0  0  0  0
   13.8481    7.3300   -0.0355 C   0  0  0  0  0
    4.0063   -0.6395   -0.7665 H   0  0  0  0  0
    3.9538   -0.5466    0.9934 H   0  0  0  0  0
    3.7333    1.9497    0.8586 H   0  0  0  0  0
    3.7748    1.8622   -0.8998 H   0  0  0  0  0
    6.0604    0.8411   -0.8032 H   0  0  0  0  0
    6.0211    0.9135    0.9601 H   0  0  0  0  0
    5.7978    3.4035    0.8591 H   0  0  0  0  0
    5.8227    3.3388   -0.9046 H   0  0  0  0  0
    8.1084    2.3232   -0.8422 H   0  0  0  0  0
    8.0860    2.3689    0.9222 H   0  0  0  0  0
    7.8591    4.8595    0.8614 H   0  0  0  0  0
    7.8660    4.8221   -0.9031 H   0  0  0  0  0
   10.1548    3.8124   -0.8802 H   0  0  0  0  0
   10.1503    3.8299    0.8850 H   0  0  0  0  0
    9.9121    6.3205    0.8660 H   0  0  0  0  0
    9.9026    6.3109   -0.8989 H   0  0  0  0  0
   12.1963    5.3141   -0.9141 H   0  0  0  0  0
   12.2086    5.3009    0.8509 H   0  0  0  0  0
   11.9616    7.7940    0.8759 H   0  0  0  0  0
   11.9391    7.8129   -0.8887 H   0  0  0  0  0
   14.2702    6.8256    0.8395 H   0  0  0  0  0
   14.1891    8.3701   -0.0253 H   0  0  0  0  0
   14.2471    6.8507   -0.9350 H   0  0  0  0  0
  1  2  3  0  0  0
  2  3  1  0  0  0
  3  4  1  0  0  0
  3 14  1  0  0  0
  3 15  1  0  0  0
  4  5  1  0  0  0
  4 16  1  0  0  0
  4 17  1  0  0  0
  5  6  1  0  0  0
  5 18  1  0  0  0
  5 19  1  0  0  0
  6  7  1  0  0  0
  6 20  1  0  0  0
  6 21  1  0  0  0
  7  8  1  0  0  0
  7 22  1  0  0  0
  7 23  1  0  0  0
  8  9  1  0  0  0
  8 24  1  0  0  0
  8 25  1  0  0  0
  9 10  1  0  0  0
  9 26  1  0  0  0
  9 27  1  0  0  0
 10 11  1  0  0  0
 10 28  1  0  0  0
 10 29  1  0  0  0
 11 12  1  0  0  0
 11 30  1  0  0  0
 11 31  1  0  0  0
 12 13  1  0  0  0
 12 32  1  0  0  0
 12 33  1  0  0  0
 13 34  1  0  0  0
 13 35  1  0  0  0
 13 36  1  0  0  0
M  END