371
 OpenBabel11300911223D

 20 20  0  0  0  0  0  0  0  0999 V2000
    1.1940   -0.0425   -0.1738 C   0  0  0  0  0
    2.5857    0.0740   -0.4503 O   0  0  0  0  0
    3.1567    1.3194   -0.3556 C   0  0  0  0  0
    2.4196    2.4872   -0.1036 C   0  0  0  0  0
    3.0524    3.7303   -0.0091 C   0  0  0  0  0
    4.4300    3.8263   -0.1620 C   0  0  0  0  0
    5.1766    2.6771   -0.4141 C   0  0  0  0  0
    4.5546    1.4192   -0.5210 C   0  0  0  0  0
    5.4624    0.2649   -0.8088 C   0  0  0  0  0
    6.6826    0.3656   -0.7168 O   0  0  0  0  0
    4.9045   -0.9150   -1.2027 N   0  0  0  0  0
    0.6001    0.4881   -0.9252 H   0  0  0  0  0
    0.9582    0.3024    0.8388 H   0  0  0  0  0
    0.9314   -1.1034   -0.2316 H   0  0  0  0  0
    1.3420    2.4689    0.0242 H   0  0  0  0  0
    2.4652    4.6248    0.1856 H   0  0  0  0  0
    4.9254    4.7912   -0.0881 H   0  0  0  0  0
    6.2555    2.7638   -0.5354 H   0  0  0  0  0
    3.8997   -1.0420   -1.2079 H   0  0  0  0  0
    5.5113   -1.7068   -1.3572 H   0  0  0  0  0
  1  2  1  0  0  0
  1 12  1  0  0  0
  1 13  1  0  0  0
  1 14  1  0  0  0
  2  3  1  0  0  0
  3  4  2  0  0  0
  3  8  1  0  0  0
  4  5  1  0  0  0
  4 15  1  0  0  0
  5  6  2  0  0  0
  5 16  1  0  0  0
  6  7  1  0  0  0
  6 17  1  0  0  0
  7  8  2  0  0  0
  7 18  1  0  0  0
  8  9  1  0  0  0
  9 11  1  0  0  0
  9 10  2  0  0  0
 11 19  1  0  0  0
 11 20  1  0  0  0
M  END