373
 OpenBabel11300911223D

 26 26  0  0  0  0  0  0  0  0999 V2000
    3.2660   -4.4268   -0.2535 O   0  0  0  0  0
    3.5914   -3.8229    0.7594 C   0  0  0  0  0
    4.3108   -2.6756    0.7953 O   0  0  0  0  0
    4.7545   -2.1729   -0.4783 C   0  0  0  0  0
    6.0490   -2.8584   -0.9138 C   0  0  0  0  0
    7.1223   -2.5228   -0.0052 O   0  0  0  0  0
    8.3006   -2.2394   -0.7727 C   0  0  0  0  0
    8.0058   -2.6467   -2.1994 C   0  0  0  0  0
    6.5184   -2.4159   -2.2902 C   0  0  0  0  0
    3.1981   -4.2541    2.1320 C   0  0  0  0  0
    3.7934   -3.7623    3.2322 C   0  0  0  0  0
    2.1121   -5.2835    2.1948 C   0  0  0  0  0
    4.9260   -1.1005   -0.3351 H   0  0  0  0  0
    3.9650   -2.2825   -1.2308 H   0  0  0  0  0
    5.9443   -3.9492   -0.8756 H   0  0  0  0  0
    9.1539   -2.7761   -0.3496 H   0  0  0  0  0
    8.4929   -1.1643   -0.6990 H   0  0  0  0  0
    8.2265   -3.7118   -2.3387 H   0  0  0  0  0
    8.5848   -2.0787   -2.9323 H   0  0  0  0  0
    6.3221   -1.3483   -2.4471 H   0  0  0  0  0
    6.0413   -2.9738   -3.1007 H   0  0  0  0  0
    4.5927   -3.0285    3.1785 H   0  0  0  0  0
    3.5029   -4.0903    4.2250 H   0  0  0  0  0
    2.4203   -6.2031    1.6865 H   0  0  0  0  0
    1.2011   -4.9080    1.7161 H   0  0  0  0  0
    1.8572   -5.5457    3.2273 H   0  0  0  0  0
  1  2  2  0  0  0
  2 10  1  0  0  0
  2  3  1  0  0  0
  3  4  1  0  0  0
  4  5  1  0  0  0
  4 13  1  0  0  0
  4 14  1  0  0  0
  5  6  1  0  0  0
  5  9  1  0  0  0
  5 15  1  0  0  0
  6  7  1  0  0  0
  7  8  1  0  0  0
  7 16  1  0  0  0
  7 17  1  0  0  0
  8  9  1  0  0  0
  8 18  1  0  0  0
  8 19  1  0  0  0
  9 20  1  0  0  0
  9 21  1  0  0  0
 10 12  1  0  0  0
 10 11  2  0  0  0
 11 22  1  0  0  0
 11 23  1  0  0  0
 12 24  1  0  0  0
 12 25  1  0  0  0
 12 26  1  0  0  0
M  END