385
 OpenBabel11300911223D

 14 14  0  0  0  0  0  0  0  0999 V2000
    0.9399   -0.0139   -0.1876 N   0  0  0  0  0
    2.3455    0.0087   -0.0063 C   0  0  0  0  0
    3.0491    1.2351   -0.0274 C   0  0  0  0  0
    2.1422    2.7191   -0.0610 Cl  0  0  0  0  0
    4.4512    1.2518    0.0061 C   0  0  0  0  0
    5.3641    2.7202    0.0178 Cl  0  0  0  0  0
    5.1666    0.0540    0.0268 C   0  0  0  0  0
    4.4899   -1.1662    0.0062 C   0  0  0  0  0
    5.4494   -2.6048    0.0180 Cl  0  0  0  0  0
    3.0879   -1.1945   -0.0273 C   0  0  0  0  0
    2.2291   -2.7067   -0.0610 Cl  0  0  0  0  0
    0.4979   -0.8729    0.1344 H   0  0  0  0  0
    0.4705    0.8305    0.1348 H   0  0  0  0  0
    6.2545    0.0713    0.0503 H   0  0  0  0  0
  1  2  1  0  0  0
  1 12  1  0  0  0
  1 13  1  0  0  0
  2 10  1  0  0  0
  2  3  2  0  0  0
  3  5  1  0  0  0
  3  4  1  0  0  0
  5  7  2  0  0  0
  5  6  1  0  0  0
  7  8  1  0  0  0
  7 14  1  0  0  0
  8 10  2  0  0  0
  8  9  1  0  0  0
 10 11  1  0  0  0
M  END