386
 OpenBabel11300911223D

 31 33  0  0  0  0  0  0  0  0999 V2000
   -1.2173    0.1606    0.0996 C   0  0  0  0  0
   -0.6808    1.3723   -0.3247 C   0  0  0  0  0
    0.7068    1.5379   -0.4012 C   0  0  0  0  0
    1.5909    0.4996   -0.0510 C   0  0  0  0  0
    1.0175   -0.7177    0.3642 C   0  0  0  0  0
   -0.3685   -0.8869    0.4417 C   0  0  0  0  0
    3.0608    0.6564   -0.1175 C   0  0  0  0  0
    3.7039    1.8769    0.0725 C   0  0  0  0  0
    5.0905    1.9350   -0.0126 C   0  0  0  0  0
    5.8068    0.7727   -0.2757 C   0  0  0  0  0
    5.1185   -0.4265   -0.4404 C   0  0  0  0  0
    3.7630   -0.4798   -0.3670 N   0  0  0  0  0
    5.7963   -1.7120   -0.7154 C   0  0  0  0  0
    5.1644   -2.7053   -1.4875 C   0  0  0  0  0
    5.7895   -3.9247   -1.7659 C   0  0  0  0  0
    7.0640   -4.1820   -1.2712 C   0  0  0  0  0
    7.7093   -3.2239   -0.4954 C   0  0  0  0  0
    7.0810   -2.0043   -0.2193 C   0  0  0  0  0
   -2.2945    0.0303    0.1571 H   0  0  0  0  0
   -1.3404    2.1899   -0.6037 H   0  0  0  0  0
    1.0869    2.4915   -0.7598 H   0  0  0  0  0
    1.6629   -1.5524    0.6357 H   0  0  0  0  0
   -0.7787   -1.8390    0.7676 H   0  0  0  0  0
    3.1459    2.7795    0.2984 H   0  0  0  0  0
    5.6093    2.8790    0.1256 H   0  0  0  0  0
    6.8869    0.8188   -0.3614 H   0  0  0  0  0
    4.1652   -2.5254   -1.8831 H   0  0  0  0  0
    5.2755   -4.6700   -2.3668 H   0  0  0  0  0
    7.5502   -5.1299   -1.4843 H   0  0  0  0  0
    8.7003   -3.4252   -0.0970 H   0  0  0  0  0
    7.6064   -1.2899    0.4101 H   0  0  0  0  0
  1  2  2  0  0  0
  1  6  1  0  0  0
  1 19  1  0  0  0
  2  3  1  0  0  0
  2 20  1  0  0  0
  3  4  2  0  0  0
  3 21  1  0  0  0
  4  5  1  0  0  0
  4  7  1  0  0  0
  5  6  2  0  0  0
  5 22  1  0  0  0
  6 23  1  0  0  0
  7 12  1  0  0  0
  7  8  2  0  0  0
  8  9  1  0  0  0
  8 24  1  0  0  0
  9 10  2  0  0  0
  9 25  1  0  0  0
 10 11  1  0  0  0
 10 26  1  0  0  0
 11 12  2  0  0  0
 11 13  1  0  0  0
 13 14  2  0  0  0
 13 18  1  0  0  0
 14 15  1  0  0  0
 14 27  1  0  0  0
 15 16  2  0  0  0
 15 28  1  0  0  0
 16 17  1  0  0  0
 16 29  1  0  0  0
 17 18  2  0  0  0
 17 30  1  0  0  0
 18 31  1  0  0  0
M  END