388
 OpenBabel11300912003D

 22 21  0  0  0  0  0  0  0  0999 V2000
    2.6411    0.0323   -0.1500 S   0  0  0  0  0
    2.5278    1.9636    0.5525 S   0  0  0  0  0
    1.3034    2.8191   -0.5234 C   0  0  0  0  0
    1.8010    2.9699   -1.9558 C   0  0  0  0  0
   -0.0657    2.1473   -0.4723 C   0  0  0  0  0
    4.0134    0.0624   -1.3721 C   0  0  0  0  0
    5.3411    0.4520   -0.7287 C   0  0  0  0  0
    4.1145   -1.3283   -1.9977 C   0  0  0  0  0
    1.2007    3.8240   -0.0971 H   0  0  0  0  0
    1.8275    2.0133   -2.4860 H   0  0  0  0  0
    2.7996    3.4189   -1.9890 H   0  0  0  0  0
    1.1295    3.6284   -2.5185 H   0  0  0  0  0
   -0.0601    1.1561   -0.9376 H   0  0  0  0  0
   -0.8019    2.7524   -1.0133 H   0  0  0  0  0
   -0.4229    2.0451    0.5579 H   0  0  0  0  0
    3.7666    0.7763   -2.1634 H   0  0  0  0  0
    5.6010   -0.2115    0.1032 H   0  0  0  0  0
    5.3277    1.4817   -0.3585 H   0  0  0  0  0
    6.1516    0.3910   -1.4639 H   0  0  0  0  0
    4.3595   -2.0943   -1.2527 H   0  0  0  0  0
    4.9022   -1.3476   -2.7593 H   0  0  0  0  0
    3.1792   -1.6142   -2.4920 H   0  0  0  0  0
  1  6  1  0  0  0
  1  2  1  0  0  0
  2  3  1  0  0  0
  3  5  1  0  0  0
  3  4  1  0  0  0
  3  9  1  0  0  0
  4 10  1  0  0  0
  4 11  1  0  0  0
  4 12  1  0  0  0
  5 13  1  0  0  0
  5 14  1  0  0  0
  5 15  1  0  0  0
  6  8  1  0  0  0
  6  7  1  0  0  0
  6 16  1  0  0  0
  7 17  1  0  0  0
  7 18  1  0  0  0
  7 19  1  0  0  0
  8 20  1  0  0  0
  8 21  1  0  0  0
  8 22  1  0  0  0
M  END