389
 OpenBabel11300911223D

 26 26  0  0  0  0  0  0  0  0999 V2000
    1.0654   -1.5507   -0.5313 O   0  0  0  0  0
    0.6056   -0.4422   -0.7845 C   0  0  0  0  0
    1.3675    0.7977   -0.5140 C   0  0  0  0  0
    0.8254    2.0481   -0.8267 C   0  0  0  0  0
   -0.4208    2.0654   -1.3925 O   0  0  0  0  0
   -0.9343    3.3248   -1.8132 C   0  0  0  0  0
    1.5819    3.1848   -0.5362 C   0  0  0  0  0
    2.8646    3.0898    0.0356 C   0  0  0  0  0
    3.4285    4.3238    0.2434 O   0  0  0  0  0
    4.8389    4.3990    0.3977 C   0  0  0  0  0
    3.4019    1.8298    0.3499 C   0  0  0  0  0
    4.6306    1.7790    0.9501 O   0  0  0  0  0
    5.2244    0.5030    1.1595 C   0  0  0  0  0
    2.6407    0.6895    0.0677 C   0  0  0  0  0
   -0.3991   -0.3359   -1.2254 H   0  0  0  0  0
   -1.9050    3.1476   -2.2862 H   0  0  0  0  0
   -0.2807    3.7894   -2.5591 H   0  0  0  0  0
   -1.0970    3.9886   -0.9579 H   0  0  0  0  0
    1.2064    4.1826   -0.7446 H   0  0  0  0  0
    5.3656    3.8247   -0.3715 H   0  0  0  0  0
    5.1366    4.1016    1.4074 H   0  0  0  0  0
    5.1272    5.4477    0.2736 H   0  0  0  0  0
    5.3501   -0.0353    0.2142 H   0  0  0  0  0
    4.6488   -0.0855    1.8810 H   0  0  0  0  0
    6.2201    0.6654    1.5836 H   0  0  0  0  0
    3.0066   -0.3065    0.3012 H   0  0  0  0  0
  1  2  2  0  0  0
  2  3  1  0  0  0
  2 15  1  0  0  0
  3  4  2  0  0  0
  3 14  1  0  0  0
  4  7  1  0  0  0
  4  5  1  0  0  0
  5  6  1  0  0  0
  6 16  1  0  0  0
  6 17  1  0  0  0
  6 18  1  0  0  0
  7  8  2  0  0  0
  7 19  1  0  0  0
  8 11  1  0  0  0
  8  9  1  0  0  0
  9 10  1  0  0  0
 10 20  1  0  0  0
 10 21  1  0  0  0
 10 22  1  0  0  0
 11 14  2  0  0  0
 11 12  1  0  0  0
 12 13  1  0  0  0
 13 23  1  0  0  0
 13 24  1  0  0  0
 13 25  1  0  0  0
 14 26  1  0  0  0
M  END