393
 OpenBabel11300911223D

 26 27  0  0  0  0  0  0  0  0999 V2000
    1.1439    0.0605    0.0704 C   0  0  0  0  0
    0.4106    1.4033    0.1376 C   0  0  0  0  0
   -1.0824    1.2183    0.2248 C   0  0  0  0  0
   -1.7159    1.0894    1.4632 C   0  0  0  0  0
   -3.0896    0.9017    1.4909 C   0  0  0  0  0
   -3.8613    0.8308    0.3858 N   0  0  0  0  0
   -3.2298    0.9540   -0.8007 C   0  0  0  0  0
   -1.8622    1.1439   -0.9321 C   0  0  0  0  0
    2.6374    0.2442   -0.0206 C   0  0  0  0  0
    3.4182    0.3358    1.1344 C   0  0  0  0  0
    4.7854    0.5233    0.9991 C   0  0  0  0  0
    5.4160    0.6291   -0.1896 N   0  0  0  0  0
    4.6434    0.5421   -1.2929 C   0  0  0  0  0
    3.2698    0.3556   -1.2614 C   0  0  0  0  0
    0.9073   -0.5506    0.9517 H   0  0  0  0  0
    0.7973   -0.5231   -0.7929 H   0  0  0  0  0
    0.6501    2.0150   -0.7422 H   0  0  0  0  0
    0.7552    1.9853    1.0025 H   0  0  0  0  0
   -1.1575    1.1338    2.3923 H   0  0  0  0  0
   -3.6210    0.7995    2.4328 H   0  0  0  0  0
   -3.8724    0.8932   -1.6746 H   0  0  0  0  0
   -1.4211    1.2320   -1.9192 H   0  0  0  0  0
    2.9777    0.2617    2.1230 H   0  0  0  0  0
    5.4284    0.5969    1.8715 H   0  0  0  0  0
    5.1740    0.6304   -2.2365 H   0  0  0  0  0
    2.7106    0.2973   -2.1891 H   0  0  0  0  0
  1  9  1  0  0  0
  1  2  1  0  0  0
  1 15  1  0  0  0
  1 16  1  0  0  0
  2  3  1  0  0  0
  2 17  1  0  0  0
  2 18  1  0  0  0
  3  4  2  0  0  0
  3  8  1  0  0  0
  4  5  1  0  0  0
  4 19  1  0  0  0
  5  6  2  0  0  0
  5 20  1  0  0  0
  6  7  1  0  0  0
  7  8  2  0  0  0
  7 21  1  0  0  0
  8 22  1  0  0  0
  9 10  2  0  0  0
  9 14  1  0  0  0
 10 11  1  0  0  0
 10 23  1  0  0  0
 11 12  2  0  0  0
 11 24  1  0  0  0
 12 13  1  0  0  0
 13 14  2  0  0  0
 13 25  1  0  0  0
 14 26  1  0  0  0
M  END