394
 OpenBabel11300911223D

 25 25  0  0  0  0  0  0  0  0999 V2000
    1.6188    0.5195    1.1777 O   0  0  0  0  0
    2.5361    0.3573    0.3710 C   0  0  0  0  0
    3.2740    1.4011   -0.1832 N   0  0  0  0  0
    4.4445    1.2267   -0.9571 C   0  0  0  0  0
    4.9197   -0.1017   -1.0451 N   0  0  0  0  0
    4.2611   -1.2065   -0.5103 C   0  0  0  0  0
    4.7673   -2.3257   -0.4136 O   0  0  0  0  0
    6.2503   -0.4144   -1.6077 C   0  0  0  0  0
    7.3511   -0.3156   -0.5578 C   0  0  0  0  0
    5.2402    2.5270   -1.7047 S   0  0  0  0  0
    2.8009    2.7435    0.2161 C   0  0  0  0  0
    3.4523    3.2107    1.5129 C   0  0  0  0  0
    2.8442   -1.0008   -0.1321 C   0  0  0  0  0
    6.4803    0.2385   -2.4539 H   0  0  0  0  0
    6.2432   -1.4309   -2.0199 H   0  0  0  0  0
    7.4191    0.6935   -0.1403 H   0  0  0  0  0
    8.3197   -0.5661   -1.0016 H   0  0  0  0  0
    7.1688   -1.0054    0.2725 H   0  0  0  0  0
    1.7126    2.7232    0.3516 H   0  0  0  0  0
    2.9794    3.4754   -0.5759 H   0  0  0  0  0
    3.2299    2.5243    2.3363 H   0  0  0  0  0
    3.0800    4.2024    1.7874 H   0  0  0  0  0
    4.5406    3.2694    1.4165 H   0  0  0  0  0
    2.2129   -1.2072   -1.0024 H   0  0  0  0  0
    2.5989   -1.7175    0.6602 H   0  0  0  0  0
  1  2  2  0  0  0
  2  3  1  0  0  0
  2 13  1  0  0  0
  3  4  1  0  0  0
  3 11  1  0  0  0
  4  5  1  0  0  0
  4 10  2  0  0  0
  5  6  1  0  0  0
  5  8  1  0  0  0
  6 13  1  0  0  0
  6  7  2  0  0  0
  8  9  1  0  0  0
  8 14  1  0  0  0
  8 15  1  0  0  0
  9 16  1  0  0  0
  9 17  1  0  0  0
  9 18  1  0  0  0
 11 12  1  0  0  0
 11 19  1  0  0  0
 11 20  1  0  0  0
 12 21  1  0  0  0
 12 22  1  0  0  0
 12 23  1  0  0  0
 13 24  1  0  0  0
 13 25  1  0  0  0
M  END