395
 OpenBabel11300911223D

 26 26  0  0  0  0  0  0  0  0999 V2000
    1.2200    0.0507    0.4486 O   0  0  0  0  0
    2.3861    0.0764    0.0985 C   0  0  0  0  0
    3.1809   -0.9892   -0.1587 O   0  0  0  0  0
    2.5902   -2.2836   -0.0072 C   0  0  0  0  0
    3.1599    1.3365   -0.0921 C   0  0  0  0  0
    2.5362    2.5577    0.2067 C   0  0  0  0  0
    3.2281    3.7682    0.0594 C   0  0  0  0  0
    4.5541    3.7782   -0.3975 C   0  0  0  0  0
    5.1674    2.5548   -0.6797 C   0  0  0  0  0
    6.5638    2.4894   -1.0555 N   0  0  0  0  0
    6.8272    1.9474   -2.1365 O   0  0  0  0  0
    7.3858    2.9230   -0.2387 O   0  0  0  0  0
    5.2141    5.0935   -0.5485 C   0  0  0  0  0
    4.9948    6.0410    0.1859 O   0  0  0  0  0
    5.9879    5.0887   -1.6572 O   0  0  0  0  0
    6.7066    6.3048   -1.8747 C   0  0  0  0  0
    4.4866    1.3359   -0.5394 C   0  0  0  0  0
    2.8851   -2.8894   -0.8687 H   0  0  0  0  0
    1.4981   -2.2625    0.0437 H   0  0  0  0  0
    2.9939   -2.7464    0.8975 H   0  0  0  0  0
    1.5052    2.5733    0.5617 H   0  0  0  0  0
    2.7237    4.7041    0.3009 H   0  0  0  0  0
    7.3672    6.1569   -2.7335 H   0  0  0  0  0
    7.3230    6.5500   -1.0038 H   0  0  0  0  0
    6.0130    7.1194   -2.1025 H   0  0  0  0  0
    4.9996    0.4021   -0.7632 H   0  0  0  0  0
  1  2  2  0  0  0
  2  5  1  0  0  0
  2  3  1  0  0  0
  3  4  1  0  0  0
  4 18  1  0  0  0
  4 19  1  0  0  0
  4 20  1  0  0  0
  5  6  2  0  0  0
  5 17  1  0  0  0
  6  7  1  0  0  0
  6 21  1  0  0  0
  7  8  2  0  0  0
  7 22  1  0  0  0
  8  9  1  0  0  0
  8 13  1  0  0  0
  9 17  2  0  0  0
  9 10  1  0  0  0
 10 12  2  0  0  0
 10 11  2  0  0  0
 13 15  1  0  0  0
 13 14  2  0  0  0
 15 16  1  0  0  0
 16 23  1  0  0  0
 16 24  1  0  0  0
 16 25  1  0  0  0
 17 26  1  0  0  0
M  END