397
 OpenBabel11300911223D

 26 26  0  0  0  0  0  0  0  0999 V2000
    3.0603   -1.1092   -0.5102 O   0  0  0  0  0
    2.4739   -0.0723   -0.2456 C   0  0  0  0  0
    1.1656    0.0383    0.0948 O   0  0  0  0  0
    0.4622   -1.2044    0.1370 C   0  0  0  0  0
    3.1248    1.2665   -0.2501 C   0  0  0  0  0
    2.4037    2.4495   -0.0590 C   0  0  0  0  0
    3.0687    3.6774   -0.0418 C   0  0  0  0  0
    4.4611    3.7375   -0.2266 C   0  0  0  0  0
    5.1907    2.5578   -0.4853 C   0  0  0  0  0
    6.5978    2.5368   -0.5405 N   0  0  0  0  0
    5.1570    5.0544   -0.2010 C   0  0  0  0  0
    6.2180    5.2770   -0.7664 O   0  0  0  0  0
    4.4553    5.9394    0.5525 O   0  0  0  0  0
    5.0727    7.2215    0.6743 C   0  0  0  0  0
    4.5126    1.3291   -0.4471 C   0  0  0  0  0
    0.9955   -1.9415    0.7456 H   0  0  0  0  0
    0.3059   -1.5788   -0.8791 H   0  0  0  0  0
   -0.5138   -1.0231    0.5960 H   0  0  0  0  0
    1.3265    2.4327    0.0895 H   0  0  0  0  0
    2.4902    4.5848    0.1191 H   0  0  0  0  0
    6.9868    1.7669   -1.0762 H   0  0  0  0  0
    6.9926    3.4387   -0.8297 H   0  0  0  0  0
    5.0444    7.7446   -0.2863 H   0  0  0  0  0
    6.1018    7.1289    1.0364 H   0  0  0  0  0
    4.5029    7.8027    1.4047 H   0  0  0  0  0
    5.0752    0.4038   -0.5644 H   0  0  0  0  0
  1  2  2  0  0  0
  2  5  1  0  0  0
  2  3  1  0  0  0
  3  4  1  0  0  0
  4 16  1  0  0  0
  4 17  1  0  0  0
  4 18  1  0  0  0
  5  6  2  0  0  0
  5 15  1  0  0  0
  6  7  1  0  0  0
  6 19  1  0  0  0
  7  8  2  0  0  0
  7 20  1  0  0  0
  8  9  1  0  0  0
  8 11  1  0  0  0
  9 15  2  0  0  0
  9 10  1  0  0  0
 10 21  1  0  0  0
 10 22  1  0  0  0
 11 13  1  0  0  0
 11 12  2  0  0  0
 13 14  1  0  0  0
 14 23  1  0  0  0
 14 24  1  0  0  0
 14 25  1  0  0  0
 15 26  1  0  0  0
M  END