398
 OpenBabel11300912003D

 22 21  0  0  0  0  0  0  0  0999 V2000
    1.5225   -0.1868    0.5924 S   0  0  0  0  0
    0.2570   -1.0582   -0.3840 C   0  0  0  0  0
    0.3958   -2.5668   -0.2792 C   0  0  0  0  0
    2.9675   -0.4210   -0.5003 C   0  0  0  0  0
    4.1804    0.2878    0.1002 C   0  0  0  0  0
    5.6334    0.0802   -0.9843 S   0  0  0  0  0
    6.8498    0.9762    0.0303 C   0  0  0  0  0
    8.2019    0.9857   -0.6589 C   0  0  0  0  0
    0.3052   -0.7325   -1.4279 H   0  0  0  0  0
   -0.7224   -0.7594    0.0053 H   0  0  0  0  0
    1.3339   -2.9221   -0.7143 H   0  0  0  0  0
   -0.4213   -3.0518   -0.8232 H   0  0  0  0  0
    0.3441   -2.9023    0.7617 H   0  0  0  0  0
    2.7279   -0.0064   -1.4863 H   0  0  0  0  0
    3.1667   -1.4928   -0.6037 H   0  0  0  0  0
    4.4211   -0.1319    1.0828 H   0  0  0  0  0
    3.9850    1.3597    0.2106 H   0  0  0  0  0
    6.9351    0.4865    1.0049 H   0  0  0  0  0
    6.5056    2.0036    0.1826 H   0  0  0  0  0
    8.5838   -0.0298   -0.8119 H   0  0  0  0  0
    8.9302    1.5227   -0.0417 H   0  0  0  0  0
    8.1557    1.4909   -1.6298 H   0  0  0  0  0
  1  4  1  0  0  0
  1  2  1  0  0  0
  2  3  1  0  0  0
  2  9  1  0  0  0
  2 10  1  0  0  0
  3 11  1  0  0  0
  3 12  1  0  0  0
  3 13  1  0  0  0
  4  5  1  0  0  0
  4 14  1  0  0  0
  4 15  1  0  0  0
  5  6  1  0  0  0
  5 16  1  0  0  0
  5 17  1  0  0  0
  6  7  1  0  0  0
  7  8  1  0  0  0
  7 18  1  0  0  0
  7 19  1  0  0  0
  8 20  1  0  0  0
  8 21  1  0  0  0
  8 22  1  0  0  0
M  END