399
 OpenBabel11300911223D

 19 19  0  0  0  0  0  0  0  0999 V2000
    0.6632    0.2495    0.1579 Cl  0  0  0  0  0
    2.3785    0.1411    0.0238 C   0  0  0  0  0
    3.1083    1.3323   -0.0147 C   0  0  0  0  0
    4.5042    1.3095   -0.1529 C   0  0  0  0  0
    5.1871    0.0900   -0.2591 C   0  0  0  0  0
    6.6711    0.0158   -0.4101 C   0  0  0  0  0
    7.2155   -1.0827   -0.4667 O   0  0  0  0  0
    7.4666    1.2925   -0.4858 C   0  0  0  0  0
    3.0698   -1.0644   -0.0745 C   0  0  0  0  0
    4.4627   -1.1083   -0.2203 C   0  0  0  0  0
    2.3598   -2.3199   -0.0273 N   0  0  0  0  0
    2.3373   -2.9866   -1.0692 O   0  0  0  0  0
    1.8708   -2.6501    1.0601 O   0  0  0  0  0
    2.5966    2.2907    0.0592 H   0  0  0  0  0
    5.0313    2.2603   -0.1767 H   0  0  0  0  0
    7.1423    1.8921   -1.3402 H   0  0  0  0  0
    8.5241    1.0481   -0.6268 H   0  0  0  0  0
    7.3686    1.8547    0.4463 H   0  0  0  0  0
    4.9772   -2.0656   -0.3015 H   0  0  0  0  0
  1  2  1  0  0  0
  2  3  2  0  0  0
  2  9  1  0  0  0
  3  4  1  0  0  0
  3 14  1  0  0  0
  4  5  2  0  0  0
  4 15  1  0  0  0
  5 10  1  0  0  0
  5  6  1  0  0  0
  6  8  1  0  0  0
  6  7  2  0  0  0
  8 16  1  0  0  0
  8 17  1  0  0  0
  8 18  1  0  0  0
  9 10  2  0  0  0
  9 11  1  0  0  0
 10 19  1  0  0  0
 11 13  2  0  0  0
 11 12  2  0  0  0
M  END