401
 OpenBabel11300911223D

 23 23  0  0  0  0  0  0  0  0999 V2000
    1.1761    0.0679   -1.0512 C   0  0  0  0  0
    2.1728    0.1419   -0.0401 O   0  0  0  0  0
    2.8607    1.3242    0.0657 C   0  0  0  0  0
    4.0997    1.2716    0.7358 C   0  0  0  0  0
    4.6332   -0.0386    1.2598 C   0  0  0  0  0
    4.8742    2.4446    0.8568 C   0  0  0  0  0
    6.0930    2.2999    1.4718 O   0  0  0  0  0
    6.7550    3.4886    1.8855 C   0  0  0  0  0
    4.3955    3.6511    0.3393 C   0  0  0  0  0
    3.1518    3.7017   -0.2881 C   0  0  0  0  0
    2.3857    2.5450   -0.4226 C   0  0  0  0  0
    0.8646   -0.9772   -1.1352 H   0  0  0  0  0
    1.5704    0.3771   -2.0246 H   0  0  0  0  0
    0.2954    0.6555   -0.7761 H   0  0  0  0  0
    3.8317   -0.7506    1.4795 H   0  0  0  0  0
    5.1751    0.1037    2.2006 H   0  0  0  0  0
    5.3069   -0.4858    0.5227 H   0  0  0  0  0
    7.6244    3.1951    2.4804 H   0  0  0  0  0
    6.1091    4.1041    2.5212 H   0  0  0  0  0
    7.1184    4.0553    1.0226 H   0  0  0  0  0
    4.9711    4.5679    0.4003 H   0  0  0  0  0
    2.7806    4.6456   -0.6792 H   0  0  0  0  0
    1.4190    2.6275   -0.9083 H   0  0  0  0  0
  1  2  1  0  0  0
  1 12  1  0  0  0
  1 13  1  0  0  0
  1 14  1  0  0  0
  2  3  1  0  0  0
  3  4  2  0  0  0
  3 11  1  0  0  0
  4  6  1  0  0  0
  4  5  1  0  0  0
  5 15  1  0  0  0
  5 16  1  0  0  0
  5 17  1  0  0  0
  6  9  2  0  0  0
  6  7  1  0  0  0
  7  8  1  0  0  0
  8 18  1  0  0  0
  8 19  1  0  0  0
  8 20  1  0  0  0
  9 10  1  0  0  0
  9 21  1  0  0  0
 10 11  2  0  0  0
 10 22  1  0  0  0
 11 23  1  0  0  0
M  END