402
 OpenBabel11300912003D

 19 19  0  0  0  0  0  0  0  0999 V2000
   -1.3042   -0.2669    0.2808 N   0  0  0  0  0
   -0.7733    0.9757    0.3323 C   0  0  0  0  0
    0.5614    1.2557    0.1117 C   0  0  0  0  0
    1.4001    0.1949   -0.1881 C   0  0  0  0  0
    0.8708   -1.0943   -0.2470 C   0  0  0  0  0
   -0.4872   -1.3085    0.0037 C   0  0  0  0  0
   -1.0153   -2.6153   -0.0712 N   0  0  0  0  0
   -2.4781   -2.6378   -0.0168 C   0  0  0  0  0
   -0.3687   -3.5436    0.8568 C   0  0  0  0  0
   -1.4801    1.7673    0.5623 H   0  0  0  0  0
    0.9330    2.2721    0.1624 H   0  0  0  0  0
    2.4540    0.3627   -0.3867 H   0  0  0  0  0
    1.5175   -1.9219   -0.5169 H   0  0  0  0  0
   -2.9161   -2.0187   -0.8078 H   0  0  0  0  0
   -2.8558   -2.3076    0.9579 H   0  0  0  0  0
   -2.8387   -3.6587   -0.1848 H   0  0  0  0  0
    0.6887   -3.6932    0.6167 H   0  0  0  0  0
   -0.8412   -4.5301    0.7920 H   0  0  0  0  0
   -0.4544   -3.1978    1.8935 H   0  0  0  0  0
  1  2  2  0  0  0
  1  6  1  0  0  0
  2  3  1  0  0  0
  2 10  1  0  0  0
  3  4  2  0  0  0
  3 11  1  0  0  0
  4  5  1  0  0  0
  4 12  1  0  0  0
  5  6  2  0  0  0
  5 13  1  0  0  0
  6  7  1  0  0  0
  7  9  1  0  0  0
  7  8  1  0  0  0
  8 14  1  0  0  0
  8 15  1  0  0  0
  8 16  1  0  0  0
  9 17  1  0  0  0
  9 18  1  0  0  0
  9 19  1  0  0  0
M  END