404
 OpenBabel11300911233D

 15 15  0  0  0  0  0  0  0  0999 V2000
    0.9569   -0.0939    0.2068 N   0  0  0  0  0
    2.1134   -0.0705    0.1156 C   0  0  0  0  0
    3.5413   -0.0400   -0.0229 C   0  0  0  0  0
    4.2386    1.1807   -0.1161 C   0  0  0  0  0
    3.6164    2.4250    0.0755 N   0  0  0  0  0
    5.6404    1.1413   -0.1711 C   0  0  0  0  0
    6.3263   -0.0748   -0.2327 C   0  0  0  0  0
    5.6168   -1.2704   -0.1973 C   0  0  0  0  0
    6.4593   -2.7676   -0.2697 Cl  0  0  0  0  0
    4.2298   -1.2611   -0.0859 C   0  0  0  0  0
    4.1295    3.2180   -0.2994 H   0  0  0  0  0
    2.6289    2.4665   -0.1683 H   0  0  0  0  0
    6.2137    2.0655   -0.1655 H   0  0  0  0  0
    7.4118   -0.0783   -0.2929 H   0  0  0  0  0
    3.6841   -2.2014   -0.0364 H   0  0  0  0  0
  1  2  3  0  0  0
  2  3  1  0  0  0
  3  4  2  0  0  0
  3 10  1  0  0  0
  4  6  1  0  0  0
  4  5  1  0  0  0
  5 11  1  0  0  0
  5 12  1  0  0  0
  6  7  2  0  0  0
  6 13  1  0  0  0
  7  8  1  0  0  0
  7 14  1  0  0  0
  8 10  2  0  0  0
  8  9  1  0  0  0
 10 15  1  0  0  0
M  END