405
 OpenBabel11300912003D

 15 14  0  0  0  0  0  0  0  0999 V2000
    0.9858   -0.0155    0.0160 C   0  0  0  0  0
    2.5252    0.0338    0.0488 C   0  0  0  0  0
    3.0016   -0.7827    1.2630 C   0  0  0  0  0
    2.9717   -0.7028   -1.1153 O   0  0  0  0  0
    3.0911    1.5047    0.0510 C   0  0  0  0  0
    2.5875    2.3711   -1.4560 Cl  0  0  0  0  0
    2.5113    2.4679    1.4523 Cl  0  0  0  0  0
    4.8936    1.5326    0.0726 Cl  0  0  0  0  0
    0.5831    0.4678   -0.8799 H   0  0  0  0  0
    0.5354    0.4514    0.8973 H   0  0  0  0  0
    0.6352   -1.0547   -0.0289 H   0  0  0  0  0
    2.6881   -0.3371    2.2117 H   0  0  0  0  0
    4.0905   -0.8965    1.2715 H   0  0  0  0  0
    2.6013   -1.8037    1.2224 H   0  0  0  0  0
    2.7255   -0.1943   -1.9109 H   0  0  0  0  0
  1  2  1  0  0  0
  1  9  1  0  0  0
  1 10  1  0  0  0
  1 11  1  0  0  0
  2  5  1  0  0  0
  2  4  1  0  0  0
  2  3  1  0  0  0
  3 12  1  0  0  0
  3 13  1  0  0  0
  3 14  1  0  0  0
  4 15  1  0  0  0
  5  8  1  0  0  0
  5  7  1  0  0  0
  5  6  1  0  0  0
M  END