406
 OpenBabel11300911233D

 37 36  0  0  0  0  0  0  0  0999 V2000
    1.9550    0.6128    1.1011 O   0  0  0  0  0
    2.2385    0.0789    0.0290 C   0  0  0  0  0
    2.9845   -1.2370   -0.0223 C   0  0  0  0  0
    2.0090   -2.4080    0.0053 C   0  0  0  0  0
    2.7457   -3.7467   -0.0243 C   0  0  0  0  0
    1.7663   -4.9211    0.0042 C   0  0  0  0  0
    2.5038   -6.2611   -0.0160 C   0  0  0  0  0
    1.5250   -7.4368   -0.0024 C   0  0  0  0  0
    2.2654   -8.7754   -0.0043 C   0  0  0  0  0
    1.2895   -9.9532   -0.0074 C   0  0  0  0  0
    2.0326  -11.2884    0.0111 C   0  0  0  0  0
    1.0682  -12.4636   -0.0037 C   0  0  0  0  0
    1.8198    0.6839   -1.2851 C   0  0  0  0  0
    3.6657   -1.2751    0.8355 H   0  0  0  0  0
    3.6056   -1.2585   -0.9245 H   0  0  0  0  0
    1.3253   -2.3424   -0.8501 H   0  0  0  0  0
    1.3867   -2.3464    0.9071 H   0  0  0  0  0
    3.4234   -3.8123    0.8355 H   0  0  0  0  0
    3.3634   -3.8059   -0.9285 H   0  0  0  0  0
    1.0928   -4.8591   -0.8593 H   0  0  0  0  0
    1.1435   -4.8592    0.9051 H   0  0  0  0  0
    3.1692   -6.3265    0.8536 H   0  0  0  0  0
    3.1349   -6.3200   -0.9110 H   0  0  0  0  0
    0.8685   -7.3777   -0.8789 H   0  0  0  0  0
    0.8851   -7.3726    0.8861 H   0  0  0  0  0
    2.9130   -8.8368    0.8788 H   0  0  0  0  0
    2.9148   -8.8350   -0.8862 H   0  0  0  0  0
    0.6516   -9.8988   -0.8981 H   0  0  0  0  0
    0.6301   -9.8874    0.8667 H   0  0  0  0  0
    2.6617  -11.3517    0.9063 H   0  0  0  0  0
    2.6967  -11.3581   -0.8579 H   0  0  0  0  0
    0.4053  -12.4392    0.8676 H   0  0  0  0  0
    1.6212  -13.4084    0.0169 H   0  0  0  0  0
    0.4493  -12.4523   -0.9070 H   0  0  0  0  0
    1.2940    1.6252   -1.1047 H   0  0  0  0  0
    1.1500    0.0003   -1.8111 H   0  0  0  0  0
    2.7050    0.8874   -1.8922 H   0  0  0  0  0
  1  2  2  0  0  0
  2 13  1  0  0  0
  2  3  1  0  0  0
  3  4  1  0  0  0
  3 14  1  0  0  0
  3 15  1  0  0  0
  4  5  1  0  0  0
  4 16  1  0  0  0
  4 17  1  0  0  0
  5  6  1  0  0  0
  5 18  1  0  0  0
  5 19  1  0  0  0
  6  7  1  0  0  0
  6 20  1  0  0  0
  6 21  1  0  0  0
  7  8  1  0  0  0
  7 22  1  0  0  0
  7 23  1  0  0  0
  8  9  1  0  0  0
  8 24  1  0  0  0
  8 25  1  0  0  0
  9 10  1  0  0  0
  9 26  1  0  0  0
  9 27  1  0  0  0
 10 11  1  0  0  0
 10 28  1  0  0  0
 10 29  1  0  0  0
 11 12  1  0  0  0
 11 30  1  0  0  0
 11 31  1  0  0  0
 12 32  1  0  0  0
 12 33  1  0  0  0
 12 34  1  0  0  0
 13 35  1  0  0  0
 13 36  1  0  0  0
 13 37  1  0  0  0
M  END