407
 OpenBabel11300911233D

 26 26  0  0  0  0  0  0  0  0999 V2000
    4.3005   -2.1985    0.5675 O   0  0  0  0  0
    3.8407   -1.0966    0.2986 C   0  0  0  0  0
    4.6921    0.1083    0.2841 C   0  0  0  0  0
    4.1619    1.3010   -0.0196 C   0  0  0  0  0
    4.9300    2.5539   -0.0565 C   0  0  0  0  0
    4.2852    3.7551    0.2386 C   0  0  0  0  0
    4.9774    4.9758    0.1845 C   0  0  0  0  0
    6.3356    5.0560   -0.1666 C   0  0  0  0  0
    7.0078    6.2830   -0.2342 N   0  0  0  0  0
    8.4392    6.2977   -0.5307 C   0  0  0  0  0
    6.5354    7.3718    0.6221 C   0  0  0  0  0
    6.9517    3.8371   -0.4935 C   0  0  0  0  0
    6.2695    2.6103   -0.4401 C   0  0  0  0  0
    2.7750   -0.9489    0.0533 H   0  0  0  0  0
    5.7337   -0.0469    0.5379 H   0  0  0  0  0
    3.1018    1.3968   -0.2429 H   0  0  0  0  0
    3.2338    3.7673    0.5170 H   0  0  0  0  0
    4.4077    5.8724    0.4095 H   0  0  0  0  0
    8.6523    5.8076   -1.4867 H   0  0  0  0  0
    9.0124    5.8147    0.2682 H   0  0  0  0  0
    8.8076    7.3248   -0.6319 H   0  0  0  0  0
    5.5372    7.7088    0.3256 H   0  0  0  0  0
    7.1848    8.2505    0.5402 H   0  0  0  0  0
    6.5240    7.0681    1.6744 H   0  0  0  0  0
    7.9926    3.8010   -0.8008 H   0  0  0  0  0
    6.8104    1.7099   -0.7196 H   0  0  0  0  0
  1  2  2  0  0  0
  2  3  1  0  0  0
  2 14  1  0  0  0
  3  4  2  0  0  0
  3 15  1  0  0  0
  4  5  1  0  0  0
  4 16  1  0  0  0
  5  6  2  0  0  0
  5 13  1  0  0  0
  6  7  1  0  0  0
  6 17  1  0  0  0
  7  8  2  0  0  0
  7 18  1  0  0  0
  8 12  1  0  0  0
  8  9  1  0  0  0
  9 11  1  0  0  0
  9 10  1  0  0  0
 10 19  1  0  0  0
 10 20  1  0  0  0
 10 21  1  0  0  0
 11 22  1  0  0  0
 11 23  1  0  0  0
 11 24  1  0  0  0
 12 13  2  0  0  0
 12 25  1  0  0  0
 13 26  1  0  0  0
M  END