410
 OpenBabel11300912003D

 12 12  0  0  0  0  0  0  0  0999 V2000
    0.9687    0.0627   -0.1092 O   0  0  0  0  0
    2.3261    0.0099    0.0347 C   0  0  0  0  0
    3.0156    1.2147    0.0375 C   0  0  0  0  0
    4.3994    1.2020    0.1820 C   0  0  0  0  0
    5.0365   -0.0225    0.3183 C   0  0  0  0  0
    4.3938   -1.2112    0.3194 N   0  0  0  0  0
    3.0492   -1.1737    0.1776 C   0  0  0  0  0
    2.1290   -2.8368    0.1771 Br  0  0  0  0  0
    0.6320   -0.8522   -0.0918 H   0  0  0  0  0
    2.4801    2.1532   -0.0718 H   0  0  0  0  0
    4.9681    2.1256    0.1883 H   0  0  0  0  0
    6.1157   -0.0804    0.4338 H   0  0  0  0  0
  1  2  1  0  0  0
  1  9  1  0  0  0
  2  7  1  0  0  0
  2  3  2  0  0  0
  3  4  1  0  0  0
  3 10  1  0  0  0
  4  5  2  0  0  0
  4 11  1  0  0  0
  5  6  1  0  0  0
  5 12  1  0  0  0
  6  7  2  0  0  0
  7  8  1  0  0  0
M  END