411
 OpenBabel11300912003D

 12 12  0  0  0  0  0  0  0  0999 V2000
    0.9603    0.0630   -0.1148 O   0  0  0  0  0
    2.3174    0.0207    0.0297 C   0  0  0  0  0
    3.0117    1.2217    0.0367 C   0  0  0  0  0
    4.3969    1.1991    0.1842 C   0  0  0  0  0
    5.0303   -0.0294    0.3185 C   0  0  0  0  0
    4.3846   -1.2163    0.3153 N   0  0  0  0  0
    3.0431   -1.1588    0.1705 C   0  0  0  0  0
    2.2598   -2.6872    0.1712 Cl  0  0  0  0  0
    0.6329   -0.8564   -0.0961 H   0  0  0  0  0
    2.4812    2.1629   -0.0708 H   0  0  0  0  0
    4.9699    2.1199    0.1942 H   0  0  0  0  0
    6.1088   -0.0908    0.4360 H   0  0  0  0  0
  1  2  1  0  0  0
  1  9  1  0  0  0
  2  7  1  0  0  0
  2  3  2  0  0  0
  3  4  1  0  0  0
  3 10  1  0  0  0
  4  5  2  0  0  0
  4 11  1  0  0  0
  5  6  1  0  0  0
  5 12  1  0  0  0
  6  7  2  0  0  0
  7  8  1  0  0  0
M  END