412
 OpenBabel11300912003D

 19 18  0  0  0  0  0  0  0  0999 V2000
    3.8803   -1.1632   -2.1112 C   0  0  0  0  0
    3.8052   -0.8374   -0.9572 C   0  0  0  0  0
    3.7142   -0.4549    0.4627 C   0  0  0  0  0
    4.3599    0.8385    0.7273 N   0  0  0  0  0
    3.9271    1.3826    2.0259 C   0  0  0  0  0
    4.2903    0.5534    3.1896 C   0  0  0  0  0
    4.5866   -0.1229    4.1372 C   0  0  0  0  0
    5.8226    0.7478    0.6047 C   0  0  0  0  0
    6.4707    2.0708    0.6650 C   0  0  0  0  0
    7.0061    3.1452    0.7154 C   0  0  0  0  0
    3.9495   -1.4489   -3.1353 H   0  0  0  0  0
    4.1367   -1.2522    1.0868 H   0  0  0  0  0
    2.6455   -0.3924    0.7067 H   0  0  0  0  0
    2.8373    1.5137    2.0083 H   0  0  0  0  0
    4.3201    2.3968    2.1637 H   0  0  0  0  0
    4.8528   -0.7226    4.9771 H   0  0  0  0  0
    6.0927    0.3157   -0.3666 H   0  0  0  0  0
    6.2539    0.0848    1.3645 H   0  0  0  0  0
    7.4769    4.1000    0.7580 H   0  0  0  0  0
  1  2  3  0  0  0
  1 11  1  0  0  0
  2  3  1  0  0  0
  3  4  1  0  0  0
  3 12  1  0  0  0
  3 13  1  0  0  0
  4  8  1  0  0  0
  4  5  1  0  0  0
  5  6  1  0  0  0
  5 14  1  0  0  0
  5 15  1  0  0  0
  6  7  3  0  0  0
  7 16  1  0  0  0
  8  9  1  0  0  0
  8 17  1  0  0  0
  8 18  1  0  0  0
  9 10  3  0  0  0
 10 19  1  0  0  0
M  END