414
 OpenBabel11300912003D

 42 41  0  0  0  0  0  0  0  0999 V2000
    2.8203    0.5546    0.1682 O   0  0  0  0  0
    3.4045   -0.6234    0.7259 C   0  0  0  0  0
    2.4446   -1.2434    1.7190 C   0  0  0  0  0
    1.2299   -0.7818    2.0508 C   0  0  0  0  0
    3.7508   -1.6019   -0.4175 C   0  0  0  0  0
    2.5421   -1.9944   -1.2788 C   0  0  0  0  0
    2.9449   -2.9127   -2.4032 C   0  0  0  0  0
    2.5706   -4.1955   -2.5802 C   0  0  0  0  0
    1.7053   -4.9722   -1.6092 C   0  0  0  0  0
    0.2154   -4.8648   -1.9476 C   0  0  0  0  0
   -0.6291   -5.6151   -0.9521 C   0  0  0  0  0
   -1.2536   -5.1128    0.1316 C   0  0  0  0  0
   -1.1892   -3.6766    0.5755 C   0  0  0  0  0
   -2.0795   -6.0006    1.0247 C   0  0  0  0  0
    3.0188   -4.9675   -3.7942 C   0  0  0  0  0
    4.6809   -0.2023    1.4635 C   0  0  0  0  0
    3.4791    0.9618   -0.4180 H   0  0  0  0  0
    2.7893   -2.1557    2.2041 H   0  0  0  0  0
    0.8277    0.1217    1.6025 H   0  0  0  0  0
    0.6142   -1.3001    2.7777 H   0  0  0  0  0
    4.2188   -2.5069   -0.0064 H   0  0  0  0  0
    4.4963   -1.1305   -1.0735 H   0  0  0  0  0
    2.0947   -1.0978   -1.7252 H   0  0  0  0  0
    1.7653   -2.4450   -0.6569 H   0  0  0  0  0
    3.5771   -2.4463   -3.1586 H   0  0  0  0  0
    1.8859   -4.6296   -0.5827 H   0  0  0  0  0
    2.0150   -6.0261   -1.6120 H   0  0  0  0  0
    0.0241   -5.2886   -2.9415 H   0  0  0  0  0
   -0.0920   -3.8159   -2.0140 H   0  0  0  0  0
   -0.7302   -6.6795   -1.1655 H   0  0  0  0  0
   -0.5603   -3.0523   -0.0614 H   0  0  0  0  0
   -0.7812   -3.6172    1.5896 H   0  0  0  0  0
   -2.1925   -3.2389    0.5808 H   0  0  0  0  0
   -2.1096   -7.0360    0.6690 H   0  0  0  0  0
   -3.1105   -5.6358    1.0721 H   0  0  0  0  0
   -1.6654   -6.0087    2.0380 H   0  0  0  0  0
    3.6504   -4.3670   -4.4576 H   0  0  0  0  0
    2.1526   -5.3015   -4.3744 H   0  0  0  0  0
    3.5976   -5.8473   -3.4936 H   0  0  0  0  0
    5.3890    0.2775    0.7773 H   0  0  0  0  0
    5.1835   -1.0556    1.9326 H   0  0  0  0  0
    4.4589    0.5385    2.2411 H   0  0  0  0  0
  1  2  1  0  0  0
  1 17  1  0  0  0
  2 16  1  0  0  0
  2  5  1  0  0  0
  2  3  1  0  0  0
  3  4  2  0  0  0
  3 18  1  0  0  0
  4 19  1  0  0  0
  4 20  1  0  0  0
  5  6  1  0  0  0
  5 21  1  0  0  0
  5 22  1  0  0  0
  6  7  1  0  0  0
  6 23  1  0  0  0
  6 24  1  0  0  0
  7  8  2  0  0  0
  7 25  1  0  0  0
  8 15  1  0  0  0
  8  9  1  0  0  0
  9 10  1  0  0  0
  9 26  1  0  0  0
  9 27  1  0  0  0
 10 11  1  0  0  0
 10 28  1  0  0  0
 10 29  1  0  0  0
 11 12  2  0  0  0
 11 30  1  0  0  0
 12 14  1  0  0  0
 12 13  1  0  0  0
 13 31  1  0  0  0
 13 32  1  0  0  0
 13 33  1  0  0  0
 14 34  1  0  0  0
 14 35  1  0  0  0
 14 36  1  0  0  0
 15 37  1  0  0  0
 15 38  1  0  0  0
 15 39  1  0  0  0
 16 40  1  0  0  0
 16 41  1  0  0  0
 16 42  1  0  0  0
M  END