416
 OpenBabel11300911233D

 37 36  0  0  0  0  0  0  0  0999 V2000
    0.9210   -0.0795   -0.0352 C   0  0  0  0  0
    2.4404   -0.0449    0.0049 C   0  0  0  0  0
    2.9696    1.3887   -0.0297 C   0  0  0  0  0
    4.4987    1.4166    0.0002 C   0  0  0  0  0
    5.0314    2.8505   -0.0177 C   0  0  0  0  0
    6.5606    2.8738   -0.0047 C   0  0  0  0  0
    7.0960    4.3070   -0.0038 C   0  0  0  0  0
    8.6255    4.3289   -0.0085 C   0  0  0  0  0
    9.1618    5.7611    0.0108 C   0  0  0  0  0
   10.6914    5.7833   -0.0060 C   0  0  0  0  0
   11.2237    7.2150    0.0284 C   0  0  0  0  0
   12.6814    7.2147   -0.0010 N   0  0  0  0  0
    0.5647   -1.1141   -0.0044 H   0  0  0  0  0
    0.5422    0.3829   -0.9523 H   0  0  0  0  0
    0.4933    0.4527    0.8205 H   0  0  0  0  0
    2.8353   -0.6089   -0.8479 H   0  0  0  0  0
    2.7874   -0.5475    0.9152 H   0  0  0  0  0
    2.5743    1.9470    0.8276 H   0  0  0  0  0
    2.6109    1.8917   -0.9361 H   0  0  0  0  0
    4.8922    0.8674   -0.8641 H   0  0  0  0  0
    4.8582    0.9035    0.9002 H   0  0  0  0  0
    4.6467    3.3955    0.8531 H   0  0  0  0  0
    4.6636    3.3687   -0.9119 H   0  0  0  0  0
    6.9429    2.3395   -0.8818 H   0  0  0  0  0
    6.9289    2.3456    0.8826 H   0  0  0  0  0
    6.7226    4.8380    0.8803 H   0  0  0  0  0
    6.7188    4.8414   -0.8851 H   0  0  0  0  0
    8.9969    3.8087   -0.8996 H   0  0  0  0  0
    9.0032    3.7839    0.8652 H   0  0  0  0  0
    8.7967    6.2774    0.9069 H   0  0  0  0  0
    8.7775    6.3096   -0.8578 H   0  0  0  0  0
   11.0544    5.2736   -0.9081 H   0  0  0  0  0
   11.0747    5.2230    0.8568 H   0  0  0  0  0
   10.8792    7.7251    0.9346 H   0  0  0  0  0
   10.8494    7.7770   -0.8338 H   0  0  0  0  0
   13.0414    6.7167    0.8122 H   0  0  0  0  0
   13.0212    8.1722    0.0769 H   0  0  0  0  0
  1  2  1  0  0  0
  1 13  1  0  0  0
  1 14  1  0  0  0
  1 15  1  0  0  0
  2  3  1  0  0  0
  2 16  1  0  0  0
  2 17  1  0  0  0
  3  4  1  0  0  0
  3 18  1  0  0  0
  3 19  1  0  0  0
  4  5  1  0  0  0
  4 20  1  0  0  0
  4 21  1  0  0  0
  5  6  1  0  0  0
  5 22  1  0  0  0
  5 23  1  0  0  0
  6  7  1  0  0  0
  6 24  1  0  0  0
  6 25  1  0  0  0
  7  8  1  0  0  0
  7 26  1  0  0  0
  7 27  1  0  0  0
  8  9  1  0  0  0
  8 28  1  0  0  0
  8 29  1  0  0  0
  9 10  1  0  0  0
  9 30  1  0  0  0
  9 31  1  0  0  0
 10 11  1  0  0  0
 10 32  1  0  0  0
 10 33  1  0  0  0
 11 12  1  0  0  0
 11 34  1  0  0  0
 11 35  1  0  0  0
 12 36  1  0  0  0
 12 37  1  0  0  0
M  END