417
 OpenBabel11300912003D

 20 19  0  0  0  0  0  0  0  0999 V2000
    0.9862   -0.0263    0.0442 O   0  0  0  0  0
    2.4088   -0.0809   -0.0158 C   0  0  0  0  0
    2.7884   -0.8741   -1.1921 C   0  0  0  0  0
    3.0970   -1.5265   -2.1535 C   0  0  0  0  0
    2.9552    1.3496   -0.0810 C   0  0  0  0  0
    4.4825    1.4164    0.0112 C   0  0  0  0  0
    4.9750    2.8639    0.0022 C   0  0  0  0  0
    6.4921    2.9364    0.0735 C   0  0  0  0  0
    0.7517    0.4568    0.8529 H   0  0  0  0  0
    2.7584   -0.5786    0.8960 H   0  0  0  0  0
    3.3608   -2.1051   -3.0076 H   0  0  0  0  0
    2.5175    1.9346    0.7387 H   0  0  0  0  0
    2.6152    1.8370   -1.0047 H   0  0  0  0  0
    4.9345    0.8768   -0.8292 H   0  0  0  0  0
    4.8163    0.9214    0.9313 H   0  0  0  0  0
    4.5485    3.4078    0.8530 H   0  0  0  0  0
    4.6339    3.3679   -0.9096 H   0  0  0  0  0
    6.8649    2.4666    0.9892 H   0  0  0  0  0
    6.8223    3.9799    0.0679 H   0  0  0  0  0
    6.9494    2.4310   -0.7831 H   0  0  0  0  0
  1  2  1  0  0  0
  1  9  1  0  0  0
  2  5  1  0  0  0
  2  3  1  0  0  0
  2 10  1  0  0  0
  3  4  3  0  0  0
  4 11  1  0  0  0
  5  6  1  0  0  0
  5 12  1  0  0  0
  5 13  1  0  0  0
  6  7  1  0  0  0
  6 14  1  0  0  0
  6 15  1  0  0  0
  7  8  1  0  0  0
  7 16  1  0  0  0
  7 17  1  0  0  0
  8 18  1  0  0  0
  8 19  1  0  0  0
  8 20  1  0  0  0
M  END