418
 OpenBabel11300912003D

 21 21  0  0  0  0  0  0  0  0999 V2000
    0.1940   -1.3376    0.6383 O   0  0  0  0  0
    1.4083   -1.1815    0.6603 C   0  0  0  0  0
    2.0408    0.1102    0.3267 C   0  0  0  0  0
    1.2536    1.2084   -0.0281 C   0  0  0  0  0
    1.8583    2.4289   -0.3475 C   0  0  0  0  0
    3.2485    2.5517   -0.3134 C   0  0  0  0  0
    3.9639    3.6800   -0.6046 O   0  0  0  0  0
    3.2271    4.8244   -1.0334 C   0  0  0  0  0
    4.2193    5.9308   -1.3439 C   0  0  0  0  0
    4.0273    1.4469    0.0477 C   0  0  0  0  0
    3.4307    0.2249    0.3677 C   0  0  0  0  0
    2.0877   -2.0069    0.9319 H   0  0  0  0  0
    0.1693    1.1184   -0.0578 H   0  0  0  0  0
    1.2149    3.2600   -0.6167 H   0  0  0  0  0
    2.5522    5.1607   -0.2379 H   0  0  0  0  0
    2.6558    4.5926   -1.9399 H   0  0  0  0  0
    4.8148    6.1743   -0.4581 H   0  0  0  0  0
    3.7030    6.8335   -1.6818 H   0  0  0  0  0
    4.9206    5.6121   -2.1220 H   0  0  0  0  0
    5.1108    1.5425    0.0769 H   0  0  0  0  0
    4.0582   -0.6182    0.6426 H   0  0  0  0  0
  1  2  2  0  0  0
  2  3  1  0  0  0
  2 12  1  0  0  0
  3  4  2  0  0  0
  3 11  1  0  0  0
  4  5  1  0  0  0
  4 13  1  0  0  0
  5  6  2  0  0  0
  5 14  1  0  0  0
  6 10  1  0  0  0
  6  7  1  0  0  0
  7  8  1  0  0  0
  8  9  1  0  0  0
  8 15  1  0  0  0
  8 16  1  0  0  0
  9 17  1  0  0  0
  9 18  1  0  0  0
  9 19  1  0  0  0
 10 11  2  0  0  0
 10 20  1  0  0  0
 11 21  1  0  0  0
M  END