419
 OpenBabel11300912003D

 51 53  0  0  0  0  0  0  0  0999 V2000
    5.9545    1.0186    3.6976 C   0  0  0  0  0
    6.7419    1.2893    2.4442 C   0  0  0  0  0
    7.8996    2.2325    2.6190 C   0  0  0  0  0
    6.4045    0.7193    1.2699 C   0  0  0  0  0
    7.0794    0.8943   -0.0245 C   0  0  0  0  0
    6.4026    0.5779   -1.3427 C   0  0  0  0  0
    5.0592   -0.0535   -1.4223 C   0  0  0  0  0
    4.0278    0.4767   -1.0399 O   0  0  0  0  0
    5.1587   -1.3009   -1.9523 O   0  0  0  0  0
    3.9334   -2.0389   -2.0695 C   0  0  0  0  0
    3.5419   -2.2130   -3.4953 C   0  0  0  0  0
    2.4032   -1.7345   -4.1098 C   0  0  0  0  0
    2.3714   -2.0896   -5.4184 O   0  0  0  0  0
    3.5000   -2.8146   -5.6651 C   0  0  0  0  0
    3.6880   -3.2984   -7.0607 C   0  0  0  0  0
    3.1974   -4.7113   -7.2892 C   0  0  0  0  0
    4.0839   -5.7196   -7.6953 C   0  0  0  0  0
    3.6213   -7.0143   -7.9422 C   0  0  0  0  0
    2.2697   -7.3158   -7.7867 C   0  0  0  0  0
    1.3786   -6.3237   -7.3837 C   0  0  0  0  0
    1.8385   -5.0286   -7.1391 C   0  0  0  0  0
    4.2520   -2.9143   -4.5128 C   0  0  0  0  0
    6.6731    2.0265   -0.9571 C   0  0  0  0  0
    5.5362    2.9540   -0.5944 C   0  0  0  0  0
    7.7807    2.7333   -1.7046 C   0  0  0  0  0
    5.1148    0.3378    3.5223 H   0  0  0  0  0
    5.5464    1.9523    4.0983 H   0  0  0  0  0
    6.5976    0.5649    4.4587 H   0  0  0  0  0
    7.5489    3.1921    3.0129 H   0  0  0  0  0
    8.4303    2.4361    1.6848 H   0  0  0  0  0
    8.6228    1.8125    3.3260 H   0  0  0  0  0
    5.5441    0.0510    1.2718 H   0  0  0  0  0
    8.1357    0.6351    0.0201 H   0  0  0  0  0
    7.0680    0.1696   -2.1024 H   0  0  0  0  0
    3.1144   -1.5952   -1.4913 H   0  0  0  0  0
    4.1179   -3.0259   -1.6297 H   0  0  0  0  0
    1.5591   -1.1516   -3.7667 H   0  0  0  0  0
    4.7537   -3.2285   -7.3134 H   0  0  0  0  0
    3.1705   -2.6333   -7.7636 H   0  0  0  0  0
    5.1412   -5.5037   -7.8296 H   0  0  0  0  0
    4.3155   -7.7874   -8.2611 H   0  0  0  0  0
    1.9103   -8.3227   -7.9813 H   0  0  0  0  0
    0.3239   -6.5557   -7.2624 H   0  0  0  0  0
    1.1297   -4.2624   -6.8298 H   0  0  0  0  0
    5.1992   -3.4272   -4.4159 H   0  0  0  0  0
    4.8077    2.5137    0.0910 H   0  0  0  0  0
    5.0035    3.2639   -1.4998 H   0  0  0  0  0
    5.9262    3.8550   -0.1077 H   0  0  0  0  0
    8.5965    2.0532   -1.9727 H   0  0  0  0  0
    8.2037    3.5348   -1.0900 H   0  0  0  0  0
    7.3938    3.1736   -2.6296 H   0  0  0  0  0
  1  2  1  0  0  0
  1 26  1  0  0  0
  1 27  1  0  0  0
  1 28  1  0  0  0
  2  4  2  0  0  0
  2  3  1  0  0  0
  3 29  1  0  0  0
  3 30  1  0  0  0
  3 31  1  0  0  0
  4  5  1  0  0  0
  4 32  1  0  0  0
  5 23  1  0  0  0
  5  6  1  0  0  0
  5 33  1  0  0  0
  6 23  1  0  0  0
  6  7  1  0  0  0
  6 34  1  0  0  0
  7  9  1  0  0  0
  7  8  2  0  0  0
  9 10  1  0  0  0
 10 11  1  0  0  0
 10 35  1  0  0  0
 10 36  1  0  0  0
 11 12  2  0  0  0
 11 22  1  0  0  0
 12 13  1  0  0  0
 12 37  1  0  0  0
 13 14  1  0  0  0
 14 22  2  0  0  0
 14 15  1  0  0  0
 15 16  1  0  0  0
 15 38  1  0  0  0
 15 39  1  0  0  0
 16 17  2  0  0  0
 16 21  1  0  0  0
 17 18  1  0  0  0
 17 40  1  0  0  0
 18 19  2  0  0  0
 18 41  1  0  0  0
 19 20  1  0  0  0
 19 42  1  0  0  0
 20 21  2  0  0  0
 20 43  1  0  0  0
 21 44  1  0  0  0
 22 45  1  0  0  0
 23 25  1  0  0  0
 23 24  1  0  0  0
 24 46  1  0  0  0
 24 47  1  0  0  0
 24 48  1  0  0  0
 25 49  1  0  0  0
 25 50  1  0  0  0
 25 51  1  0  0  0
M  END