420
 OpenBabel11300911233D

 18 18  0  0  0  0  0  0  0  0999 V2000
    2.3931   -1.1350    1.2559 Br  0  0  0  0  0
    2.6328   -0.2135   -0.4346 C   0  0  0  0  0
    1.1128   -0.2968   -1.6375 Br  0  0  0  0  0
    3.1105    1.2088   -0.2348 C   0  0  0  0  0
    2.3778    2.2534    0.3946 C   0  0  0  0  0
    2.9856    3.5301    0.4950 C   0  0  0  0  0
    4.2627    3.7829   -0.0013 C   0  0  0  0  0
    4.9739    2.7657   -0.6144 C   0  0  0  0  0
    0.9844    2.0761    0.9639 C   0  0  0  0  0
    0.9908    2.3740    2.8928 Br  0  0  0  0  0
   -0.2890    3.2240    0.0309 Br  0  0  0  0  0
    4.4060    1.4983   -0.7288 C   0  0  0  0  0
    3.3947   -0.8124   -0.9448 H   0  0  0  0  0
    2.4556    4.3553    0.9718 H   0  0  0  0  0
    4.6968    4.7751    0.0931 H   0  0  0  0  0
    5.9708    2.9554   -1.0043 H   0  0  0  0  0
    0.5782    1.0743    0.8469 H   0  0  0  0  0
    4.9970    0.7234   -1.2173 H   0  0  0  0  0
  1  2  1  0  0  0
  2  4  1  0  0  0
  2  3  1  0  0  0
  2 13  1  0  0  0
  4  5  2  0  0  0
  4 12  1  0  0  0
  5  6  1  0  0  0
  5  9  1  0  0  0
  6  7  2  0  0  0
  6 14  1  0  0  0
  7  8  1  0  0  0
  7 15  1  0  0  0
  8 12  2  0  0  0
  8 16  1  0  0  0
  9 11  1  0  0  0
  9 10  1  0  0  0
  9 17  1  0  0  0
 12 18  1  0  0  0
M  END