421
 OpenBabel11300911233D

 17 17  0  0  0  0  0  0  0  0999 V2000
    2.1760   -0.5890   -1.2771 C   0  0  0  0  0
    2.0905    0.2996   -0.0654 C   0  0  0  0  0
    1.2317    0.1538    0.7993 O   0  0  0  0  0
    3.0174    1.4474    0.0401 C   0  0  0  0  0
    2.4209    2.7099    0.1636 C   0  0  0  0  0
    3.2157    3.8492    0.2553 C   0  0  0  0  0
    4.6076    3.7346    0.2367 C   0  0  0  0  0
    5.5171    5.2023    0.3464 Cl  0  0  0  0  0
    5.2162    2.4706    0.1374 C   0  0  0  0  0
    6.9511    2.3443    0.1312 Cl  0  0  0  0  0
    4.4140    1.3157    0.0447 C   0  0  0  0  0
    5.1418   -0.2609   -0.0063 Cl  0  0  0  0  0
    2.8504   -0.1752   -2.0318 H   0  0  0  0  0
    1.1816   -0.6636   -1.7287 H   0  0  0  0  0
    2.5208   -1.5833   -0.9824 H   0  0  0  0  0
    1.3357    2.8044    0.1889 H   0  0  0  0  0
    2.7426    4.8267    0.3453 H   0  0  0  0  0
  1  2  1  0  0  0
  1 13  1  0  0  0
  1 14  1  0  0  0
  1 15  1  0  0  0
  2  4  1  0  0  0
  2  3  2  0  0  0
  4 11  1  0  0  0
  4  5  2  0  0  0
  5  6  1  0  0  0
  5 16  1  0  0  0
  6  7  2  0  0  0
  6 17  1  0  0  0
  7  9  1  0  0  0
  7  8  1  0  0  0
  9 11  2  0  0  0
  9 10  1  0  0  0
 11 12  1  0  0  0
M  END