422
 OpenBabel11300911233D

 29 29  0  0  0  0  0  0  0  0999 V2000
    2.6656   -1.8455   -0.7964 C   0  0  0  0  0
    2.1873   -0.4892   -1.2414 C   0  0  0  0  0
    1.3894   -0.3720   -2.1723 O   0  0  0  0  0
    2.7072    0.7392   -0.5770 C   0  0  0  0  0
    3.0366    0.8132    0.7858 C   0  0  0  0  0
    2.8749   -0.3253    1.5392 O   0  0  0  0  0
    2.1396   -0.1390    2.7478 C   0  0  0  0  0
    3.5499    2.0188    1.3221 C   0  0  0  0  0
    3.9743    1.9614    2.6294 O   0  0  0  0  0
    3.7709    3.1239    3.4246 C   0  0  0  0  0
    3.6822    3.1548    0.4948 C   0  0  0  0  0
    4.2343    4.2918    1.0266 O   0  0  0  0  0
    3.8315    5.5250    0.4383 C   0  0  0  0  0
    3.3249    3.0697   -0.8552 C   0  0  0  0  0
    2.8371    1.8756   -1.3843 C   0  0  0  0  0
    2.7197   -2.5032   -1.6697 H   0  0  0  0  0
    1.9629   -2.2669   -0.0736 H   0  0  0  0  0
    3.6717   -1.7966   -0.3727 H   0  0  0  0  0
    1.4189    0.6845    2.6857 H   0  0  0  0  0
    2.8252    0.0050    3.5880 H   0  0  0  0  0
    1.5787   -1.0593    2.9394 H   0  0  0  0  0
    3.6710    2.7976    4.4647 H   0  0  0  0  0
    2.8523    3.6592    3.1608 H   0  0  0  0  0
    4.6462    3.7780    3.3734 H   0  0  0  0  0
    2.7532    5.5536    0.2452 H   0  0  0  0  0
    4.4006    5.7178   -0.4761 H   0  0  0  0  0
    4.0608    6.3235    1.1504 H   0  0  0  0  0
    3.4500    3.9100   -1.5316 H   0  0  0  0  0
    2.5750    1.8283   -2.4406 H   0  0  0  0  0
  1  2  1  0  0  0
  1 16  1  0  0  0
  1 17  1  0  0  0
  1 18  1  0  0  0
  2  4  1  0  0  0
  2  3  2  0  0  0
  4  5  2  0  0  0
  4 15  1  0  0  0
  5  8  1  0  0  0
  5  6  1  0  0  0
  6  7  1  0  0  0
  7 19  1  0  0  0
  7 20  1  0  0  0
  7 21  1  0  0  0
  8 11  2  0  0  0
  8  9  1  0  0  0
  9 10  1  0  0  0
 10 22  1  0  0  0
 10 23  1  0  0  0
 10 24  1  0  0  0
 11 14  1  0  0  0
 11 12  1  0  0  0
 12 13  1  0  0  0
 13 25  1  0  0  0
 13 26  1  0  0  0
 13 27  1  0  0  0
 14 15  2  0  0  0
 14 28  1  0  0  0
 15 29  1  0  0  0
M  END