423
 OpenBabel11300911233D

 23 24  0  0  0  0  0  0  0  0999 V2000
    0.2789   -1.7418   -0.6081 Br  0  0  0  0  0
    2.1636   -1.6147   -0.5431 C   0  0  0  0  0
    2.9196   -2.7315   -0.1863 C   0  0  0  0  0
    4.3138   -2.6413   -0.1378 C   0  0  0  0  0
    4.9471   -1.4348   -0.4632 C   0  0  0  0  0
    4.1787   -0.3122   -0.7970 C   0  0  0  0  0
    2.7860   -0.4040   -0.8434 C   0  0  0  0  0
    6.4236   -1.2904   -0.4175 C   0  0  0  0  0
    6.9077   -0.2300   -0.0310 O   0  0  0  0  0
    7.3281   -2.3875   -0.8254 C   0  0  0  0  0
    8.5834   -2.5053   -0.2258 C   0  0  0  0  0
    9.4358   -3.5351   -0.6197 C   0  0  0  0  0
    9.0030   -4.4047   -1.6078 C   0  0  0  0  0
    7.8026   -4.3074   -2.2211 N   0  0  0  0  0
    6.9972   -3.2913   -1.8265 C   0  0  0  0  0
    2.4333   -3.6716    0.0637 H   0  0  0  0  0
    4.8843   -3.5134    0.1725 H   0  0  0  0  0
    4.6642    0.6364   -1.0206 H   0  0  0  0  0
    2.1996    0.4723   -1.1087 H   0  0  0  0  0
    8.8963   -1.8007    0.5408 H   0  0  0  0  0
   10.4154   -3.6510   -0.1687 H   0  0  0  0  0
    9.6317   -5.2240   -1.9469 H   0  0  0  0  0
    6.0608   -3.2299   -2.3742 H   0  0  0  0  0
  1  2  1  0  0  0
  2  3  2  0  0  0
  2  7  1  0  0  0
  3  4  1  0  0  0
  3 16  1  0  0  0
  4  5  2  0  0  0
  4 17  1  0  0  0
  5  6  1  0  0  0
  5  8  1  0  0  0
  6  7  2  0  0  0
  6 18  1  0  0  0
  7 19  1  0  0  0
  8 10  1  0  0  0
  8  9  2  0  0  0
 10 11  2  0  0  0
 10 15  1  0  0  0
 11 12  1  0  0  0
 11 20  1  0  0  0
 12 13  2  0  0  0
 12 21  1  0  0  0
 13 14  1  0  0  0
 13 22  1  0  0  0
 14 15  2  0  0  0
 15 23  1  0  0  0
M  END