424
 OpenBabel11300912003D

 23 24  0  0  0  0  0  0  0  0999 V2000
    1.7639   -0.0410    0.4858 O   0  0  0  0  0
    2.9459    0.0095    0.1564 C   0  0  0  0  0
    3.6565   -1.2460   -0.1914 C   0  0  0  0  0
    4.9936   -1.4574    0.1650 C   0  0  0  0  0
    5.6232   -2.6561   -0.1770 C   0  0  0  0  0
    4.9166   -3.6472   -0.8594 C   0  0  0  0  0
    3.5770   -3.4486   -1.1927 C   0  0  0  0  0
    2.9438   -2.2519   -0.8537 C   0  0  0  0  0
    3.6259    1.3295    0.1109 C   0  0  0  0  0
    3.1995    2.3226    0.9922 C   0  0  0  0  0
    3.8273    3.5530    0.9345 C   0  0  0  0  0
    4.8221    3.8446    0.0690 N   0  0  0  0  0
    5.1945    2.8728   -0.7905 C   0  0  0  0  0
    4.6298    1.6099   -0.8148 C   0  0  0  0  0
    5.5519   -0.7105    0.7236 H   0  0  0  0  0
    6.6619   -2.8234    0.0979 H   0  0  0  0  0
    5.4072   -4.5820   -1.1203 H   0  0  0  0  0
    3.0226   -4.2283   -1.7104 H   0  0  0  0  0
    1.8952   -2.1054   -1.1055 H   0  0  0  0  0
    2.3991    2.1432    1.7026 H   0  0  0  0  0
    3.5374    4.3617    1.5993 H   0  0  0  0  0
    5.9816    3.1486   -1.4866 H   0  0  0  0  0
    4.9605    0.8859   -1.5503 H   0  0  0  0  0
  1  2  2  0  0  0
  2  9  1  0  0  0
  2  3  1  0  0  0
  3  4  2  0  0  0
  3  8  1  0  0  0
  4  5  1  0  0  0
  4 15  1  0  0  0
  5  6  2  0  0  0
  5 16  1  0  0  0
  6  7  1  0  0  0
  6 17  1  0  0  0
  7  8  2  0  0  0
  7 18  1  0  0  0
  8 19  1  0  0  0
  9 10  2  0  0  0
  9 14  1  0  0  0
 10 11  1  0  0  0
 10 20  1  0  0  0
 11 12  2  0  0  0
 11 21  1  0  0  0
 12 13  1  0  0  0
 13 14  2  0  0  0
 13 22  1  0  0  0
 14 23  1  0  0  0
M  END