425
 OpenBabel11300912013D

 25 25  0  0  0  0  0  0  0  0999 V2000
   -0.7118   -0.9554    0.2596 O   0  0  0  0  0
   -1.1189    0.4233    0.3487 C   0  0  0  0  0
   -2.3531    0.6300   -0.5242 C   0  0  0  0  0
   -1.4580    0.7230    1.8117 C   0  0  0  0  0
    0.0741    1.2321   -0.1491 C   0  0  0  0  0
    1.2521    0.4045    0.3117 C   0  0  0  0  0
    0.7280   -1.0301    0.2091 C   0  0  0  0  0
    1.2049   -1.8959    1.3735 C   0  0  0  0  0
    1.1114   -1.6793   -1.1220 C   0  0  0  0  0
   -2.1480    0.3576   -1.5648 H   0  0  0  0  0
   -2.6933    1.6699   -0.4973 H   0  0  0  0  0
   -3.1764   -0.0148   -0.1944 H   0  0  0  0  0
   -0.6012    0.5490    2.4724 H   0  0  0  0  0
   -2.2535    0.0574    2.1674 H   0  0  0  0  0
   -1.7862    1.7585    1.9433 H   0  0  0  0  0
    0.0814    1.2829   -1.2448 H   0  0  0  0  0
    0.0963    2.2577    0.2324 H   0  0  0  0  0
    2.1521    0.5828   -0.2846 H   0  0  0  0  0
    1.4968    0.6637    1.3490 H   0  0  0  0  0
    0.8704   -1.4829    2.3310 H   0  0  0  0  0
    2.2964   -1.9779    1.3933 H   0  0  0  0  0
    0.7787   -2.9027    1.3099 H   0  0  0  0  0
    0.7361   -1.0957   -1.9697 H   0  0  0  0  0
    0.6646   -2.6756   -1.2113 H   0  0  0  0  0
    2.1976   -1.7770   -1.2218 H   0  0  0  0  0
  1  7  1  0  0  0
  1  2  1  0  0  0
  2  5  1  0  0  0
  2  4  1  0  0  0
  2  3  1  0  0  0
  3 10  1  0  0  0
  3 11  1  0  0  0
  3 12  1  0  0  0
  4 13  1  0  0  0
  4 14  1  0  0  0
  4 15  1  0  0  0
  5  6  1  0  0  0
  5 16  1  0  0  0
  5 17  1  0  0  0
  6  7  1  0  0  0
  6 18  1  0  0  0
  6 19  1  0  0  0
  7  9  1  0  0  0
  7  8  1  0  0  0
  8 20  1  0  0  0
  8 21  1  0  0  0
  8 22  1  0  0  0
  9 23  1  0  0  0
  9 24  1  0  0  0
  9 25  1  0  0  0
M  END