426
 OpenBabel11300911233D

 14 14  0  0  0  0  0  0  0  0999 V2000
    0.9720    0.1236    0.0911 O   0  0  0  0  0
    2.3363    0.0052    0.1301 C   0  0  0  0  0
    3.0246    1.2179    0.1241 C   0  0  0  0  0
    4.4147    1.2262    0.1613 C   0  0  0  0  0
    5.0767    0.0132    0.2034 C   0  0  0  0  0
    4.4490   -1.1818    0.2106 N   0  0  0  0  0
    3.0783   -1.1858    0.1739 C   0  0  0  0  0
    2.3393   -2.4743    0.1800 N   0  0  0  0  0
    3.0018   -3.5207    0.2182 O   0  0  0  0  0
    1.0954   -2.4339    0.1464 O   0  0  0  0  0
    0.5519   -0.7633    0.0979 H   0  0  0  0  0
    2.4745    2.1554    0.0905 H   0  0  0  0  0
    4.9671    2.1601    0.1573 H   0  0  0  0  0
    6.1626   -0.0321    0.2335 H   0  0  0  0  0
  1  2  1  0  0  0
  1 11  1  0  0  0
  2  7  1  0  0  0
  2  3  2  0  0  0
  3  4  1  0  0  0
  3 12  1  0  0  0
  4  5  2  0  0  0
  4 13  1  0  0  0
  5  6  1  0  0  0
  5 14  1  0  0  0
  6  7  2  0  0  0
  7  8  1  0  0  0
  8 10  2  0  0  0
  8  9  2  0  0  0
M  END