429
 OpenBabel11300912013D

 12 12  0  0  0  0  0  0  0  0999 V2000
    1.0287   -0.0282   -0.1352 O   0  0  0  0  0
    2.3779    0.0225   -0.0094 C   0  0  0  0  0
    3.0225    1.2404    0.0813 C   0  0  0  0  0
    4.4071    1.2288    0.2091 C   0  0  0  0  0
    5.0732    0.0057    0.2394 C   0  0  0  0  0
    4.3130   -1.1499    0.1396 C   0  0  0  0  0
    5.0592   -2.6941    0.1690 Cl  0  0  0  0  0
    2.9703   -1.1786    0.0147 N   0  0  0  0  0
    0.8940   -0.9928   -0.1720 H   0  0  0  0  0
    2.4613    2.1671    0.0530 H   0  0  0  0  0
    4.9597    2.1610    0.2841 H   0  0  0  0  0
    6.1516   -0.0383    0.3381 H   0  0  0  0  0
  1  2  1  0  0  0
  1  9  1  0  0  0
  2  8  1  0  0  0
  2  3  2  0  0  0
  3  4  1  0  0  0
  3 10  1  0  0  0
  4  5  2  0  0  0
  4 11  1  0  0  0
  5  6  1  0  0  0
  5 12  1  0  0  0
  6  8  2  0  0  0
  6  7  1  0  0  0
M  END