430
 OpenBabel11300911233D

 17 17  0  0  0  0  0  0  0  0999 V2000
    0.9847    0.1120    0.0319 C   0  0  0  0  0
    2.4726    0.0089   -0.0264 C   0  0  0  0  0
    3.1245    1.1899   -0.0492 N   0  0  0  0  0
    4.4837    1.2068   -0.1051 N   0  0  0  0  0
    5.1578    0.0460   -0.1364 C   0  0  0  0  0
    6.5413    0.0665   -0.1642 N   0  0  0  0  0
    4.5676   -1.1516   -0.0890 N   0  0  0  0  0
    3.2101   -1.1664   -0.0406 C   0  0  0  0  0
    2.6192   -2.5417   -0.0079 C   0  0  0  0  0
    0.4677   -0.8450   -0.0311 H   0  0  0  0  0
    0.6288    0.7269   -0.8011 H   0  0  0  0  0
    0.6869    0.5931    0.9687 H   0  0  0  0  0
    6.8947   -0.7983    0.2222 H   0  0  0  0  0
    6.8835    0.9265    0.2413 H   0  0  0  0  0
    1.5304   -2.5609    0.0386 H   0  0  0  0  0
    2.9942   -3.0795    0.8689 H   0  0  0  0  0
    2.9210   -3.0902   -0.9060 H   0  0  0  0  0
  1  2  1  0  0  0
  1 10  1  0  0  0
  1 11  1  0  0  0
  1 12  1  0  0  0
  2  8  1  0  0  0
  2  3  2  0  0  0
  3  4  1  0  0  0
  4  5  2  0  0  0
  5  7  1  0  0  0
  5  6  1  0  0  0
  6 13  1  0  0  0
  6 14  1  0  0  0
  7  8  2  0  0  0
  8  9  1  0  0  0
  9 15  1  0  0  0
  9 16  1  0  0  0
  9 17  1  0  0  0
M  END