432
 OpenBabel11300912013D

 26 25  0  0  0  0  0  0  0  0999 V2000
    0.5333    1.0113    0.9350 C   0  0  0  0  0
    1.8893    0.4530    1.3757 C   0  0  0  0  0
    1.6975   -0.9367    1.9856 C   0  0  0  0  0
    2.8618    0.4441    0.1793 C   0  0  0  0  0
    4.2919    0.0185    0.5561 C   0  0  0  0  0
    5.2829    0.0281   -0.6256 C   0  0  0  0  0
    6.6259   -0.5631   -0.1863 C   0  0  0  0  0
    4.7649   -0.8025   -1.6645 O   0  0  0  0  0
    5.4901    1.3882   -1.1552 C   0  0  0  0  0
    5.6642    2.4919   -1.5982 C   0  0  0  0  0
    0.6395    2.0276    0.5413 H   0  0  0  0  0
   -0.1642    1.0529    1.7784 H   0  0  0  0  0
    0.0829    0.3897    0.1535 H   0  0  0  0  0
    2.2901    1.1171    2.1519 H   0  0  0  0  0
    1.3897   -1.6641    1.2269 H   0  0  0  0  0
    0.9292   -0.9172    2.7661 H   0  0  0  0  0
    2.6190   -1.2980    2.4518 H   0  0  0  0  0
    2.8882    1.4521   -0.2522 H   0  0  0  0  0
    2.4714   -0.2219   -0.6001 H   0  0  0  0  0
    4.2510   -1.0007    0.9548 H   0  0  0  0  0
    4.6616    0.6685    1.3611 H   0  0  0  0  0
    7.0861    0.0243    0.6159 H   0  0  0  0  0
    7.3317   -0.6036   -1.0249 H   0  0  0  0  0
    6.5029   -1.5945    0.1638 H   0  0  0  0  0
    5.3172   -0.6496   -2.4502 H   0  0  0  0  0
    5.8143    3.4709   -1.9924 H   0  0  0  0  0
  1  2  1  0  0  0
  1 11  1  0  0  0
  1 12  1  0  0  0
  1 13  1  0  0  0
  2  4  1  0  0  0
  2  3  1  0  0  0
  2 14  1  0  0  0
  3 15  1  0  0  0
  3 16  1  0  0  0
  3 17  1  0  0  0
  4  5  1  0  0  0
  4 18  1  0  0  0
  4 19  1  0  0  0
  5  6  1  0  0  0
  5 20  1  0  0  0
  5 21  1  0  0  0
  6  9  1  0  0  0
  6  8  1  0  0  0
  6  7  1  0  0  0
  7 22  1  0  0  0
  7 23  1  0  0  0
  7 24  1  0  0  0
  8 25  1  0  0  0
  9 10  3  0  0  0
 10 26  1  0  0  0
M  END