433
 OpenBabel11300911233D

 17 17  0  0  0  0  0  0  0  0999 V2000
   -0.2905   -0.9590    0.0074 O   0  0  0  0  0
    0.9640   -0.4154    0.0046 C   0  0  0  0  0
    0.9887    0.9014    0.0001 N   0  0  0  0  0
    2.0980   -1.3596    0.0067 C   0  0  0  0  0
   -1.1225    0.1249    0.0043 C   0  0  0  0  0
   -0.3396    1.2601    0.0000 C   0  0  0  0  0
   -0.7504    2.6786   -0.0044 C   0  0  0  0  0
   -2.5724   -0.1329    0.0065 C   0  0  0  0  0
    1.7547   -2.3986    0.0192 H   0  0  0  0  0
    2.7247   -1.1957    0.8883 H   0  0  0  0  0
    2.7132   -1.2132   -0.8861 H   0  0  0  0  0
    0.1216    3.3399    0.0051 H   0  0  0  0  0
   -1.3583    2.9051    0.8771 H   0  0  0  0  0
   -1.3388    2.9048   -0.8991 H   0  0  0  0  0
   -2.7871   -1.2058   -0.0069 H   0  0  0  0  0
   -3.0420    0.3180   -0.8729 H   0  0  0  0  0
   -3.0348    0.2948    0.9011 H   0  0  0  0  0
  1  2  1  0  0  0
  1  5  1  0  0  0
  2  3  2  0  0  0
  2  4  1  0  0  0
  3  6  1  0  0  0
  4  9  1  0  0  0
  4 10  1  0  0  0
  4 11  1  0  0  0
  5  6  2  0  0  0
  5  8  1  0  0  0
  6  7  1  0  0  0
  7 12  1  0  0  0
  7 13  1  0  0  0
  7 14  1  0  0  0
  8 15  1  0  0  0
  8 16  1  0  0  0
  8 17  1  0  0  0
M  END