434
 OpenBabel11300911233D

 16 16  0  0  0  0  0  0  0  0999 V2000
    3.1089   -1.1158    0.4087 N   0  0  0  0  0
    2.3935    0.0111    0.1111 C   0  0  0  0  0
    1.1778   -0.0376   -0.0212 O   0  0  0  0  0
    3.1396    1.2920   -0.0031 C   0  0  0  0  0
    2.4272    2.4864    0.1621 C   0  0  0  0  0
    3.0914    3.7074    0.0624 C   0  0  0  0  0
    2.1317    5.3197    0.2957 Br  0  0  0  0  0
    4.4584    3.7517   -0.2087 C   0  0  0  0  0
    5.1677    2.5642   -0.3891 C   0  0  0  0  0
    4.5111    1.3346   -0.2901 C   0  0  0  0  0
    4.0592   -1.0945    0.7464 H   0  0  0  0  0
    2.5693   -1.9562    0.5747 H   0  0  0  0  0
    1.3594    2.4558    0.3697 H   0  0  0  0  0
    4.9762    4.7044   -0.2895 H   0  0  0  0  0
    6.2309    2.5973   -0.6159 H   0  0  0  0  0
    5.0778    0.4251   -0.4664 H   0  0  0  0  0
  1  2  1  0  0  0
  1 11  1  0  0  0
  1 12  1  0  0  0
  2  4  1  0  0  0
  2  3  2  0  0  0
  4  5  2  0  0  0
  4 10  1  0  0  0
  5  6  1  0  0  0
  5 13  1  0  0  0
  6  8  2  0  0  0
  6  7  1  0  0  0
  8  9  1  0  0  0
  8 14  1  0  0  0
  9 10  2  0  0  0
  9 15  1  0  0  0
 10 16  1  0  0  0
M  END