435
 OpenBabel11300911233D

 32 32  0  0  0  0  0  0  0  0999 V2000
    0.7082    0.2096   -0.2656 N   0  0  0  0  0
    2.1161    0.1136   -0.2031 C   0  0  0  0  0
    2.8928    1.2775    0.0491 C   0  0  0  0  0
    4.2911    1.1537    0.1337 C   0  0  0  0  0
    4.9085   -0.0885    0.0492 C   0  0  0  0  0
    4.1396   -1.2355   -0.1006 C   0  0  0  0  0
    2.2523    2.6603    0.1719 C   0  0  0  0  0
    2.9346    3.5896    1.1851 C   0  0  0  0  0
    2.1870    3.3342   -1.2014 C   0  0  0  0  0
    2.7376   -1.1654   -0.1914 C   0  0  0  0  0
    1.9262   -2.4533   -0.3334 C   0  0  0  0  0
    1.7600   -2.8110   -1.8134 C   0  0  0  0  0
    2.4924   -3.6548    0.4376 C   0  0  0  0  0
    0.3832    1.0998   -0.6255 H   0  0  0  0  0
    0.2752   -0.5509   -0.7767 H   0  0  0  0  0
    4.9230    2.0272    0.2665 H   0  0  0  0  0
    5.9909   -0.1636    0.1175 H   0  0  0  0  0
    4.6563   -2.1902   -0.1466 H   0  0  0  0  0
    1.2295    2.5439    0.5494 H   0  0  0  0  0
    3.9244    3.9167    0.8496 H   0  0  0  0  0
    3.0473    3.0977    2.1573 H   0  0  0  0  0
    2.3327    4.4930    1.3359 H   0  0  0  0  0
    3.1890    3.5060   -1.6113 H   0  0  0  0  0
    1.6800    4.3030   -1.1348 H   0  0  0  0  0
    1.6365    2.7192   -1.9216 H   0  0  0  0  0
    0.9317   -2.2908    0.0992 H   0  0  0  0  0
    2.7274   -3.0111   -2.2872 H   0  0  0  0  0
    1.2821   -1.9977   -2.3695 H   0  0  0  0  0
    1.1368   -3.7040   -1.9290 H   0  0  0  0  0
    3.4261   -4.0249    0.0024 H   0  0  0  0  0
    1.7786   -4.4859    0.4200 H   0  0  0  0  0
    2.6795   -3.3977    1.4856 H   0  0  0  0  0
  1  2  1  0  0  0
  1 14  1  0  0  0
  1 15  1  0  0  0
  2  3  2  0  0  0
  2 10  1  0  0  0
  3  4  1  0  0  0
  3  7  1  0  0  0
  4  5  2  0  0  0
  4 16  1  0  0  0
  5  6  1  0  0  0
  5 17  1  0  0  0
  6 10  2  0  0  0
  6 18  1  0  0  0
  7  9  1  0  0  0
  7  8  1  0  0  0
  7 19  1  0  0  0
  8 20  1  0  0  0
  8 21  1  0  0  0
  8 22  1  0  0  0
  9 23  1  0  0  0
  9 24  1  0  0  0
  9 25  1  0  0  0
 10 11  1  0  0  0
 11 13  1  0  0  0
 11 12  1  0  0  0
 11 26  1  0  0  0
 12 27  1  0  0  0
 12 28  1  0  0  0
 12 29  1  0  0  0
 13 30  1  0  0  0
 13 31  1  0  0  0
 13 32  1  0  0  0
M  END