436
 OpenBabel11300912013D

 18 17  0  0  0  0  0  0  0  0999 V2000
    1.7510    2.1315   -2.4338 F   0  0  0  0  0
    3.0462    2.1991   -2.0222 C   0  0  0  0  0
    3.3196    3.5171   -1.8571 F   0  0  0  0  0
    3.2376    1.4147   -0.7281 C   0  0  0  0  0
    2.3515    1.8429    0.2223 F   0  0  0  0  0
    2.9203    0.1038   -0.9566 F   0  0  0  0  0
    4.6587    1.4763   -0.1082 C   0  0  0  0  0
    4.7006    0.6733    1.0940 O   0  0  0  0  0
    5.7170    0.8905   -1.0455 C   0  0  0  0  0
    5.0604    2.8917    0.3159 C   0  0  0  0  0
    3.6661    1.8102   -2.8334 H   0  0  0  0  0
    3.8721    0.8388    1.5854 H   0  0  0  0  0
    5.8323    1.4825   -1.9583 H   0  0  0  0  0
    5.4621   -0.1372   -1.3260 H   0  0  0  0  0
    6.6920    0.8400   -0.5474 H   0  0  0  0  0
    5.2241    3.5517   -0.5403 H   0  0  0  0  0
    5.9854    2.8716    0.9042 H   0  0  0  0  0
    4.2958    3.3378    0.9614 H   0  0  0  0  0
  1  2  1  0  0  0
  2  4  1  0  0  0
  2  3  1  0  0  0
  2 11  1  0  0  0
  4  7  1  0  0  0
  4  6  1  0  0  0
  4  5  1  0  0  0
  7 10  1  0  0  0
  7  9  1  0  0  0
  7  8  1  0  0  0
  8 12  1  0  0  0
  9 13  1  0  0  0
  9 14  1  0  0  0
  9 15  1  0  0  0
 10 16  1  0  0  0
 10 17  1  0  0  0
 10 18  1  0  0  0
M  END