438
 OpenBabel11300911233D

 19 19  0  0  0  0  0  0  0  0999 V2000
    2.0812   -1.2520   -0.4636 Br  0  0  0  0  0
    3.2588    0.0657    0.3496 C   0  0  0  0  0
    3.0610    1.4497   -0.2628 C   0  0  0  0  0
    3.6771    1.5594   -1.6638 C   0  0  0  0  0
    3.5677    2.9869   -2.1933 C   0  0  0  0  0
    4.1167    3.9808   -1.1773 C   0  0  0  0  0
    3.4949    3.7468    0.1920 C   0  0  0  0  0
    3.6954    2.3975    0.6123 O   0  0  0  0  0
    4.2864   -0.2951    0.2359 H   0  0  0  0  0
    3.0216    0.0691    1.4189 H   0  0  0  0  0
    1.9897    1.6855   -0.3022 H   0  0  0  0  0
    3.1928    0.8728   -2.3661 H   0  0  0  0  0
    4.7404    1.2894   -1.6198 H   0  0  0  0  0
    4.1098    3.0794   -3.1408 H   0  0  0  0  0
    2.5158    3.2188   -2.3995 H   0  0  0  0  0
    5.2030    3.8446   -1.1063 H   0  0  0  0  0
    3.9325    5.0077   -1.5101 H   0  0  0  0  0
    3.9678    4.4004    0.9319 H   0  0  0  0  0
    2.4223    3.9733    0.1882 H   0  0  0  0  0
  1  2  1  0  0  0
  2  3  1  0  0  0
  2  9  1  0  0  0
  2 10  1  0  0  0
  3  8  1  0  0  0
  3  4  1  0  0  0
  3 11  1  0  0  0
  4  5  1  0  0  0
  4 12  1  0  0  0
  4 13  1  0  0  0
  5  6  1  0  0  0
  5 14  1  0  0  0
  5 15  1  0  0  0
  6  7  1  0  0  0
  6 16  1  0  0  0
  6 17  1  0  0  0
  7  8  1  0  0  0
  7 18  1  0  0  0
  7 19  1  0  0  0
M  END