442
 OpenBabel11300912013D

 52 54  0  0  0  0  0  0  0  0999 V2000
    0.3684   -1.1137    1.7769 C   0  0  0  0  0
    1.6883   -1.2607    1.0093 C   0  0  0  0  0
    1.4077   -2.0782   -0.2609 C   0  0  0  0  0
    2.3372    0.1158    0.6739 C   0  0  0  0  0
    2.5319    0.9735    1.9314 C   0  0  0  0  0
    3.5276    0.9704    2.6426 O   0  0  0  0  0
    1.4385    1.7602    2.1469 O   0  0  0  0  0
    1.5317    2.6448    3.2869 C   0  0  0  0  0
    0.5924    3.7784    3.1008 C   0  0  0  0  0
   -0.1321    4.6697    2.9366 N   0  0  0  0  0
    1.2454    1.8669    4.5623 C   0  0  0  0  0
    2.2515    1.7199    5.5302 C   0  0  0  0  0
    2.0492    0.9109    6.6479 C   0  0  0  0  0
    0.8383    0.2404    6.8177 C   0  0  0  0  0
   -0.1964    0.4223    5.8987 C   0  0  0  0  0
   -1.4195   -0.2085    5.9563 O   0  0  0  0  0
   -1.9379   -0.5942    7.1702 C   0  0  0  0  0
   -1.9083    0.2053    8.3154 C   0  0  0  0  0
   -2.4745   -0.2598    9.5038 C   0  0  0  0  0
   -3.1079   -1.5022    9.5372 C   0  0  0  0  0
   -3.1818   -2.2791    8.3815 C   0  0  0  0  0
   -2.5995   -1.8236    7.1979 C   0  0  0  0  0
    0.0137    1.2218    4.7700 C   0  0  0  0  0
    3.6628    0.0326   -0.0906 C   0  0  0  0  0
    3.9660    1.0154   -1.0493 C   0  0  0  0  0
    5.1819    0.9908   -1.7389 C   0  0  0  0  0
    6.1069   -0.0162   -1.4783 C   0  0  0  0  0
    7.6005   -0.0502   -2.3312 Cl  0  0  0  0  0
    5.8323   -0.9910   -0.5248 C   0  0  0  0  0
    4.6228   -0.9589    0.1747 C   0  0  0  0  0
    0.5442   -0.7190    2.7795 H   0  0  0  0  0
   -0.1226   -2.0849    1.9039 H   0  0  0  0  0
   -0.3274   -0.4487    1.2548 H   0  0  0  0  0
    2.3608   -1.8425    1.6515 H   0  0  0  0  0
    0.7290   -1.5419   -0.9329 H   0  0  0  0  0
    0.9414   -3.0371   -0.0080 H   0  0  0  0  0
    2.3230   -2.3055   -0.8140 H   0  0  0  0  0
    1.6358    0.6568    0.0213 H   0  0  0  0  0
    2.5401    3.0796    3.3225 H   0  0  0  0  0
    3.2208    2.1993    5.3996 H   0  0  0  0  0
    2.8475    0.7808    7.3746 H   0  0  0  0  0
    0.7248   -0.4258    7.6683 H   0  0  0  0  0
   -1.4445    1.1874    8.2957 H   0  0  0  0  0
   -2.4282    0.3511   10.4016 H   0  0  0  0  0
   -3.5549   -1.8594   10.4616 H   0  0  0  0  0
   -3.6949   -3.2371    8.4013 H   0  0  0  0  0
   -2.6622   -2.4273    6.2964 H   0  0  0  0  0
   -0.7853    1.3087    4.0349 H   0  0  0  0  0
    3.2609    1.8161   -1.2645 H   0  0  0  0  0
    5.4019    1.7612   -2.4731 H   0  0  0  0  0
    6.5560   -1.7735   -0.3122 H   0  0  0  0  0
    4.4507   -1.7186    0.9335 H   0  0  0  0  0
  1  2  1  0  0  0
  1 31  1  0  0  0
  1 32  1  0  0  0
  1 33  1  0  0  0
  2  4  1  0  0  0
  2  3  1  0  0  0
  2 34  1  0  0  0
  3 35  1  0  0  0
  3 36  1  0  0  0
  3 37  1  0  0  0
  4 24  1  0  0  0
  4  5  1  0  0  0
  4 38  1  0  0  0
  5  7  1  0  0  0
  5  6  2  0  0  0
  7  8  1  0  0  0
  8 11  1  0  0  0
  8  9  1  0  0  0
  8 39  1  0  0  0
  9 10  3  0  0  0
 11 12  2  0  0  0
 11 23  1  0  0  0
 12 13  1  0  0  0
 12 40  1  0  0  0
 13 14  2  0  0  0
 13 41  1  0  0  0
 14 15  1  0  0  0
 14 42  1  0  0  0
 15 23  2  0  0  0
 15 16  1  0  0  0
 16 17  1  0  0  0
 17 18  2  0  0  0
 17 22  1  0  0  0
 18 19  1  0  0  0
 18 43  1  0  0  0
 19 20  2  0  0  0
 19 44  1  0  0  0
 20 21  1  0  0  0
 20 45  1  0  0  0
 21 22  2  0  0  0
 21 46  1  0  0  0
 22 47  1  0  0  0
 23 48  1  0  0  0
 24 25  2  0  0  0
 24 30  1  0  0  0
 25 26  1  0  0  0
 25 49  1  0  0  0
 26 27  2  0  0  0
 26 50  1  0  0  0
 27 29  1  0  0  0
 27 28  1  0  0  0
 29 30  2  0  0  0
 29 51  1  0  0  0
 30 52  1  0  0  0
M  END