444
 OpenBabel11300912023D

 28 27  0  0  0  0  0  0  0  0999 V2000
    5.5257    0.9948   -0.3207 S   0  0  0  0  0
    6.2950    0.8974   -1.9671 C   0  0  0  0  0
    7.1418    2.1334   -2.2145 C   0  0  0  0  0
    4.7226   -0.6419   -0.2550 C   0  0  0  0  0
    3.6120   -0.8693   -1.2842 C   0  0  0  0  0
    2.4854    0.1731   -1.3100 C   0  0  0  0  0
    1.7327    0.2687    0.0153 C   0  0  0  0  0
    0.2930    1.3891   -0.0709 S   0  0  0  0  0
    1.1011    2.9961   -0.3793 C   0  0  0  0  0
    2.0193    3.4329    0.7477 C   0  0  0  0  0
    5.5170    0.8337   -2.7329 H   0  0  0  0  0
    6.9217    0.0022   -2.0229 H   0  0  0  0  0
    6.5382    3.0471   -2.1843 H   0  0  0  0  0
    7.6033    2.0757   -3.2060 H   0  0  0  0  0
    7.9484    2.2236   -1.4790 H   0  0  0  0  0
    4.3187   -0.7626    0.7554 H   0  0  0  0  0
    5.4953   -1.4096   -0.3709 H   0  0  0  0  0
    3.1714   -1.8568   -1.0954 H   0  0  0  0  0
    4.0511   -0.9310   -2.2873 H   0  0  0  0  0
    1.7860   -0.1131   -2.1062 H   0  0  0  0  0
    2.8984    1.1447   -1.5973 H   0  0  0  0  0
    2.3814    0.5818    0.8367 H   0  0  0  0  0
    1.3434   -0.7202    0.2817 H   0  0  0  0  0
    0.3017    3.7365   -0.4911 H   0  0  0  0  0
    1.6369    2.9692   -1.3322 H   0  0  0  0  0
    2.3999    4.4395    0.5441 H   0  0  0  0  0
    2.8875    2.7767    0.8483 H   0  0  0  0  0
    1.4915    3.4661    1.7063 H   0  0  0  0  0
  1  4  1  0  0  0
  1  2  1  0  0  0
  2  3  1  0  0  0
  2 11  1  0  0  0
  2 12  1  0  0  0
  3 13  1  0  0  0
  3 14  1  0  0  0
  3 15  1  0  0  0
  4  5  1  0  0  0
  4 16  1  0  0  0
  4 17  1  0  0  0
  5  6  1  0  0  0
  5 18  1  0  0  0
  5 19  1  0  0  0
  6  7  1  0  0  0
  6 20  1  0  0  0
  6 21  1  0  0  0
  7  8  1  0  0  0
  7 22  1  0  0  0
  7 23  1  0  0  0
  8  9  1  0  0  0
  9 10  1  0  0  0
  9 24  1  0  0  0
  9 25  1  0  0  0
 10 26  1  0  0  0
 10 27  1  0  0  0
 10 28  1  0  0  0
M  END