445
 OpenBabel11300912023D

 44 44  0  0  0  0  0  0  0  0999 V2000
    3.1837    3.2860   -4.0693 C   0  0  0  0  0
    2.1225    3.4604   -2.9942 C   0  0  0  0  0
    2.3142    2.5426   -1.7837 C   0  0  0  0  0
    3.6676    2.6526   -1.0758 C   0  0  0  0  0
    3.9404    4.0376   -0.4838 C   0  0  0  0  0
    5.3345    4.0993    0.1438 C   0  0  0  0  0
    5.6014    5.4574    0.7892 C   0  0  0  0  0
    7.0143    5.5328    1.3644 C   0  0  0  0  0
    7.1721    6.8101    1.9851 O   0  0  0  0  0
    8.4324    7.1249    2.4401 C   0  0  0  0  0
    9.4929    6.2162    2.5448 C   0  0  0  0  0
   10.7367    6.6416    3.0160 C   0  0  0  0  0
   10.9273    7.9678    3.3920 C   0  0  0  0  0
    9.8752    8.8813    3.2911 C   0  0  0  0  0
    8.6301    8.4715    2.8119 C   0  0  0  0  0
    7.5261    9.3478    2.6885 N   0  0  0  0  0
    7.5405   10.7244    2.7492 C   0  0  0  0  0
    6.1638   11.3289    2.6639 C   0  0  0  0  0
    8.5327   11.4424    2.8245 O   0  0  0  0  0
    2.9332    3.8899   -4.9468 H   0  0  0  0  0
    3.2553    2.2403   -4.3864 H   0  0  0  0  0
    4.1682    3.6098   -3.7174 H   0  0  0  0  0
    1.1408    3.2472   -3.4352 H   0  0  0  0  0
    2.0946    4.5084   -2.6763 H   0  0  0  0  0
    2.1811    1.5028   -2.1078 H   0  0  0  0  0
    1.5130    2.7445   -1.0616 H   0  0  0  0  0
    4.4723    2.3740   -1.7651 H   0  0  0  0  0
    3.6903    1.9131   -0.2659 H   0  0  0  0  0
    3.1795    4.2676    0.2723 H   0  0  0  0  0
    3.8688    4.8073   -1.2610 H   0  0  0  0  0
    6.0876    3.9066   -0.6292 H   0  0  0  0  0
    5.4356    3.3097    0.8973 H   0  0  0  0  0
    4.8717    5.6487    1.5866 H   0  0  0  0  0
    5.4654    6.2632    0.0570 H   0  0  0  0  0
    7.1477    4.7387    2.1077 H   0  0  0  0  0
    7.7405    5.4140    0.5515 H   0  0  0  0  0
    9.3853    5.1739    2.2719 H   0  0  0  0  0
   11.5592    5.9343    3.0934 H   0  0  0  0  0
   11.8917    8.2975    3.7670 H   0  0  0  0  0
   10.0538    9.9028    3.6088 H   0  0  0  0  0
    6.6644    8.8835    2.4165 H   0  0  0  0  0
    5.4011   10.6379    3.0306 H   0  0  0  0  0
    5.9474   11.5950    1.6252 H   0  0  0  0  0
    6.1311   12.2283    3.2858 H   0  0  0  0  0
  1  2  1  0  0  0
  1 20  1  0  0  0
  1 21  1  0  0  0
  1 22  1  0  0  0
  2  3  1  0  0  0
  2 23  1  0  0  0
  2 24  1  0  0  0
  3  4  1  0  0  0
  3 25  1  0  0  0
  3 26  1  0  0  0
  4  5  1  0  0  0
  4 27  1  0  0  0
  4 28  1  0  0  0
  5  6  1  0  0  0
  5 29  1  0  0  0
  5 30  1  0  0  0
  6  7  1  0  0  0
  6 31  1  0  0  0
  6 32  1  0  0  0
  7  8  1  0  0  0
  7 33  1  0  0  0
  7 34  1  0  0  0
  8  9  1  0  0  0
  8 35  1  0  0  0
  8 36  1  0  0  0
  9 10  1  0  0  0
 10 11  2  0  0  0
 10 15  1  0  0  0
 11 12  1  0  0  0
 11 37  1  0  0  0
 12 13  2  0  0  0
 12 38  1  0  0  0
 13 14  1  0  0  0
 13 39  1  0  0  0
 14 15  2  0  0  0
 14 40  1  0  0  0
 15 16  1  0  0  0
 16 17  1  0  0  0
 16 41  1  0  0  0
 17 19  2  0  0  0
 17 18  1  0  0  0
 18 42  1  0  0  0
 18 43  1  0  0  0
 18 44  1  0  0  0
M  END