448
 OpenBabel11300912023D

 37 38  0  0  0  0  0  0  0  0999 V2000
    1.1560   -1.1170    1.3530 C   0  0  0  0  0
    2.5772   -1.2299    0.7603 C   0  0  0  0  0
    3.5693   -1.5966    1.8853 C   0  0  0  0  0
    2.5669   -2.4090   -0.2384 C   0  0  0  0  0
    2.9694    0.1174    0.1284 C   0  0  0  0  0
    3.2178    0.2693   -1.2464 C   0  0  0  0  0
    3.5382    1.5176   -1.7932 C   0  0  0  0  0
    3.6094    2.6444   -0.9795 C   0  0  0  0  0
    3.9370    3.8307   -1.5968 O   0  0  0  0  0
    3.3648    4.9886   -1.1209 C   0  0  0  0  0
    1.9953    5.1055   -0.8588 C   0  0  0  0  0
    1.4774    6.3104   -0.3814 C   0  0  0  0  0
    2.3218    7.4051   -0.1939 C   0  0  0  0  0
    3.6827    7.2933   -0.4971 C   0  0  0  0  0
    4.5795    8.4527   -0.3222 C   0  0  0  0  0
    4.1794    9.5261    0.1089 O   0  0  0  0  0
    4.2087    6.0886   -0.9675 C   0  0  0  0  0
    3.4116    2.5132    0.3932 C   0  0  0  0  0
    3.0802    1.2676    0.9346 C   0  0  0  0  0
    0.4281   -0.8360    0.5824 H   0  0  0  0  0
    1.0985   -0.3651    2.1478 H   0  0  0  0  0
    0.8312   -2.0699    1.7868 H   0  0  0  0  0
    3.5581   -0.8690    2.7039 H   0  0  0  0  0
    4.5958   -1.6481    1.5041 H   0  0  0  0  0
    3.3263   -2.5714    2.3237 H   0  0  0  0  0
    1.8428   -2.2496   -1.0460 H   0  0  0  0  0
    2.2894   -3.3458    0.2598 H   0  0  0  0  0
    3.5540   -2.5625   -0.6898 H   0  0  0  0  0
    3.1648   -0.5744   -1.9291 H   0  0  0  0  0
    3.7236    1.6065   -2.8604 H   0  0  0  0  0
    1.3282    4.2617   -1.0178 H   0  0  0  0  0
    0.4167    6.3970   -0.1586 H   0  0  0  0  0
    1.9174    8.3443    0.1789 H   0  0  0  0  0
    5.6367    8.3044   -0.6003 H   0  0  0  0  0
    5.2635    5.9899   -1.2070 H   0  0  0  0  0
    3.5042    3.3683    1.0568 H   0  0  0  0  0
    2.9054    1.2105    2.0068 H   0  0  0  0  0
  1  2  1  0  0  0
  1 20  1  0  0  0
  1 21  1  0  0  0
  1 22  1  0  0  0
  2  5  1  0  0  0
  2  4  1  0  0  0
  2  3  1  0  0  0
  3 23  1  0  0  0
  3 24  1  0  0  0
  3 25  1  0  0  0
  4 26  1  0  0  0
  4 27  1  0  0  0
  4 28  1  0  0  0
  5  6  2  0  0  0
  5 19  1  0  0  0
  6  7  1  0  0  0
  6 29  1  0  0  0
  7  8  2  0  0  0
  7 30  1  0  0  0
  8 18  1  0  0  0
  8  9  1  0  0  0
  9 10  1  0  0  0
 10 11  2  0  0  0
 10 17  1  0  0  0
 11 12  1  0  0  0
 11 31  1  0  0  0
 12 13  2  0  0  0
 12 32  1  0  0  0
 13 14  1  0  0  0
 13 33  1  0  0  0
 14 17  2  0  0  0
 14 15  1  0  0  0
 15 16  2  0  0  0
 15 34  1  0  0  0
 17 35  1  0  0  0
 18 19  2  0  0  0
 18 36  1  0  0  0
 19 37  1  0  0  0
M  END