449
 OpenBabel11300911243D

 25 26  0  0  0  0  0  0  0  0999 V2000
    4.0753   -6.9533    1.5658 Cl  0  0  0  0  0
    5.2752   -5.8314    1.0311 C   0  0  0  0  0
    4.9476   -4.9909   -0.0381 C   0  0  0  0  0
    5.8818   -4.0716   -0.5173 C   0  0  0  0  0
    7.1480   -4.0050    0.0623 C   0  0  0  0  0
    8.0177   -3.0624   -0.4302 O   0  0  0  0  0
    9.2618   -3.4830   -0.8494 C   0  0  0  0  0
   10.2905   -2.5426   -0.7411 C   0  0  0  0  0
   11.5798   -2.8547   -1.1747 C   0  0  0  0  0
   11.8426   -4.1080   -1.7261 C   0  0  0  0  0
   10.8092   -5.0417   -1.8493 C   0  0  0  0  0
   11.0759   -6.3686   -2.4380 C   0  0  0  0  0
   12.1863   -6.6865   -2.8486 O   0  0  0  0  0
    9.5142   -4.7325   -1.4235 C   0  0  0  0  0
    7.4737   -4.8173    1.1505 C   0  0  0  0  0
    6.5392   -5.7405    1.6288 C   0  0  0  0  0
    7.0076   -6.7403    2.9578 Cl  0  0  0  0  0
    3.9645   -5.0454   -0.5002 H   0  0  0  0  0
    5.6245   -3.4126   -1.3432 H   0  0  0  0  0
   10.0868   -1.5615   -0.3179 H   0  0  0  0  0
   12.3777   -2.1211   -1.0865 H   0  0  0  0  0
   12.8478   -4.3522   -2.0646 H   0  0  0  0  0
   10.2246   -7.0673   -2.4892 H   0  0  0  0  0
    8.7138   -5.4550   -1.5502 H   0  0  0  0  0
    8.4482   -4.7298    1.6238 H   0  0  0  0  0
  1  2  1  0  0  0
  2  3  2  0  0  0
  2 16  1  0  0  0
  3  4  1  0  0  0
  3 18  1  0  0  0
  4  5  2  0  0  0
  4 19  1  0  0  0
  5 15  1  0  0  0
  5  6  1  0  0  0
  6  7  1  0  0  0
  7  8  2  0  0  0
  7 14  1  0  0  0
  8  9  1  0  0  0
  8 20  1  0  0  0
  9 10  2  0  0  0
  9 21  1  0  0  0
 10 11  1  0  0  0
 10 22  1  0  0  0
 11 14  2  0  0  0
 11 12  1  0  0  0
 12 13  2  0  0  0
 12 23  1  0  0  0
 14 24  1  0  0  0
 15 16  2  0  0  0
 15 25  1  0  0  0
 16 17  1  0  0  0
M  END