AMF11
  Mrv1674 09121610113D          

 42 45  0  0  0  0            999 V2000
    0.0000    0.0000    0.0000 F   0  0  0  0  0  0  0  0  0  0  0  0
    1.3573    0.0000    0.0000 C   0  0  0  0  0  0  0  0  0  0  0  0
    2.1002    0.0000    1.2238 C   0  0  0  0  0  0  0  0  0  0  0  0
    1.5197   -0.0910    2.5033 N   0  0  1  0  0  0  0  0  0  0  0  0
    1.8457    0.9706    3.4429 C   0  0  2  0  0  0  0  0  0  0  0  0
    1.4969    0.5819    4.8963 C   0  0  1  0  0  0  0  0  0  0  0  0
    0.1438    0.0847    5.0364 N   0  0  1  0  0  0  0  0  0  0  0  0
    0.1514   -0.5594    2.6268 C   0  0  2  0  0  0  0  0  0  0  0  0
   -0.1871   -0.9537    4.0813 C   0  0  2  0  0  0  0  0  0  0  0  0
    3.5059    0.0253    1.1283 C   0  0  0  0  0  0  0  0  0  0  0  0
    2.0172    0.0029   -1.2322 C   0  0  0  0  0  0  0  0  0  0  0  0
    3.4107    0.0271   -1.3130 C   0  0  0  0  0  0  0  0  0  0  0  0
    4.1672    0.0394   -0.1158 C   0  0  0  0  0  0  0  0  0  0  0  0
    5.5751    0.0566   -0.1901 N   0  0  0  0  0  0  0  0  0  0  0  0
    6.3572    0.0123    1.0105 C   0  0  1  0  0  0  0  0  0  0  0  0
    7.6769    0.7477    1.1424 C   0  0  2  0  0  0  0  0  0  0  0  0
    6.4934    1.2093    1.9352 C   0  0  2  0  0  0  0  0  0  0  0  0
    6.1931    0.0337   -1.4137 C   0  0  0  0  0  0  0  0  0  0  0  0
    4.0529    0.0438   -2.6451 C   0  0  0  0  0  0  0  0  0  0  0  0
    3.3831    0.0810   -3.6854 O   0  0  0  0  0  0  0  0  0  0  0  0
    5.5161    0.0217   -2.6095 C   0  0  0  0  0  0  0  0  0  0  0  0
    6.2664   -0.0167   -3.8598 C   0  0  0  0  0  0  0  0  0  0  0  0
    7.6216    0.1742   -3.7053 O   0  0  0  0  0  0  0  0  0  0  0  0
    5.8907   -0.1989   -5.0191 O   0  0  0  0  0  0  0  0  0  0  0  0
   -0.0085   -0.2438    5.9717 H   0  0  0  0  0  0  0  0  0  0  0  0
    2.2667   -0.1610    5.2586 H   0  0  0  0  0  0  0  0  0  0  0  0
    1.5870    1.5093    5.5286 H   0  0  0  0  0  0  0  0  0  0  0  0
    1.2927    1.9186    3.1787 H   0  0  0  0  0  0  0  0  0  0  0  0
    2.9483    1.1853    3.3970 H   0  0  0  0  0  0  0  0  0  0  0  0
   -1.2986   -1.1259    4.1360 H   0  0  0  0  0  0  0  0  0  0  0  0
    0.3280   -1.9309    4.3152 H   0  0  0  0  0  0  0  0  0  0  0  0
    0.0227   -1.4684    1.9765 H   0  0  0  0  0  0  0  0  0  0  0  0
   -0.5836    0.2272    2.2870 H   0  0  0  0  0  0  0  0  0  0  0  0
    4.1047    0.0211    2.0549 H   0  0  0  0  0  0  0  0  0  0  0  0
    8.0409    1.3830    0.3142 H   0  0  0  0  0  0  0  0  0  0  0  0
    8.5043    0.2203    1.6510 H   0  0  0  0  0  0  0  0  0  0  0  0
    6.4568    1.0204    3.0231 H   0  0  0  0  0  0  0  0  0  0  0  0
    6.0128    2.1671    1.6653 H   0  0  0  0  0  0  0  0  0  0  0  0
    6.2776   -0.9936    1.4878 H   0  0  0  0  0  0  0  0  0  0  0  0
    7.3047    0.0221   -1.3919 H   0  0  0  0  0  0  0  0  0  0  0  0
    8.0467    0.1353   -4.5765 H   0  0  0  0  0  0  0  0  0  0  0  0
    1.4298   -0.0010   -2.1686 H   0  0  0  0  0  0  0  0  0  0  0  0
  2  1  1  0  0  0  0
  2  3  1  0  0  0  0
  3  4  1  0  0  0  0
  4  8  1  0  0  0  0
  4  5  1  0  0  0  0
  5  6  1  0  0  0  0
  6  7  1  0  0  0  0
  6 26  1  0  0  0  0
  6 27  1  0  0  0  0
  7 25  1  0  0  0  0
  8  9  1  0  0  0  0
  9  7  1  0  0  0  0
  9 30  1  0  0  0  0
  9 31  1  0  0  0  0
 10  3  2  0  0  0  0
 10 34  1  0  0  0  0
 11  2  2  0  0  0  0
 12 11  1  0  0  0  0
 12 13  2  0  0  0  0
 13 10  1  0  0  0  0
 14 13  1  0  0  0  0
 14 15  1  0  0  0  0
 15 16  1  0  0  0  0
 15 39  1  0  0  0  0
 15 17  1  0  0  0  0
 16 36  1  0  0  0  0
 16 17  1  0  0  0  0
 17 37  1  0  0  0  0
 18 14  1  0  0  0  0
 18 40  1  0  0  0  0
 19 12  1  0  0  0  0
 19 21  1  0  0  0  0
 20 19  2  0  0  0  0
 21 18  2  0  0  0  0
 22 21  1  0  0  0  0
 22 23  1  0  0  0  0
 24 22  2  0  0  0  0
 28  5  1  0  0  0  0
 29  5  1  0  0  0  0
 32  8  1  0  0  0  0
 33  8  1  0  0  0  0
 35 16  1  0  0  0  0
 38 17  1  0  0  0  0
 41 23  1  0  0  0  0
 42 11  1  0  0  0  0
M  END