AMF15
  Mrv1674 09121610113D          

 40 42  0  0  0  0            999 V2000
    0.0000    0.0000    0.0000 C   0  0  0  0  0  0  0  0  0  0  0  0
    1.4256    0.0000    0.0000 C   0  0  0  0  0  0  0  0  0  0  0  0
    2.2178    0.0000    1.2445 C   0  0  0  0  0  0  0  0  0  0  0  0
    1.4110   -0.0438    2.4635 C   0  0  0  0  0  0  0  0  0  0  0  0
    0.0388   -0.0320    2.4011 C   0  0  0  0  0  0  0  0  0  0  0  0
   -0.6861    0.0298    1.2383 N   0  0  0  0  0  0  0  0  0  0  0  0
    3.4547    0.0378    1.2225 O   0  0  0  0  0  0  0  0  0  0  0  0
    2.0736   -0.0996    3.7625 C   0  0  0  0  0  0  0  0  0  0  0  0
    3.2617   -0.2491    4.0525 O   0  0  0  0  0  0  0  0  0  0  0  0
    1.2177    0.0272    4.8332 O   0  0  0  0  0  0  0  0  0  0  0  0
   -2.1401   -0.0087    1.3013 C   0  0  1  0  0  0  0  0  0  0  0  0
   -2.7474   -1.3936    1.1526 C   0  0  0  0  0  0  0  0  0  0  0  0
   -0.7325   -0.0278   -1.1544 N   0  0  0  0  0  0  0  0  0  0  0  0
   -0.0969   -0.0141   -2.3523 C   0  0  0  0  0  0  0  0  0  0  0  0
    1.3507    0.0012   -2.4229 C   0  0  0  0  0  0  0  0  0  0  0  0
    2.0835    0.0016   -1.2361 C   0  0  0  0  0  0  0  0  0  0  0  0
    1.9980    0.0270   -3.6102 F   0  0  0  0  0  0  0  0  0  0  0  0
   -0.8466    0.0657   -3.5584 N   0  0  1  0  0  0  0  0  0  0  0  0
   -0.6786   -1.0730   -4.4566 C   0  0  1  0  0  0  0  0  0  0  0  0
   -1.3263   -0.8200   -5.8341 C   0  0  2  0  0  0  0  0  0  0  0  0
   -2.7024   -0.3769   -5.7346 N   0  0  1  0  0  0  0  0  0  0  0  0
   -2.8743    0.7393   -4.8270 C   0  0  2  0  0  0  0  0  0  0  0  0
   -2.2372    0.4890   -3.4429 C   0  0  1  0  0  0  0  0  0  0  0  0
   -3.0556   -0.1414   -6.6433 H   0  0  0  0  0  0  0  0  0  0  0  0
    3.1882    0.0131   -1.2573 H   0  0  0  0  0  0  0  0  0  0  0  0
    1.7315   -0.0172    5.6552 H   0  0  0  0  0  0  0  0  0  0  0  0
   -2.4489    0.4240    2.2973 H   0  0  0  0  0  0  0  0  0  0  0  0
   -0.5619   -0.0560    3.3373 H   0  0  0  0  0  0  0  0  0  0  0  0
   -2.5506    0.6678    0.4978 H   0  0  0  0  0  0  0  0  0  0  0  0
   -3.8580   -1.3011    1.2309 H   0  0  0  0  0  0  0  0  0  0  0  0
   -2.4974   -1.8408    0.1607 H   0  0  0  0  0  0  0  0  0  0  0  0
   -2.3891   -2.0825    1.9547 H   0  0  0  0  0  0  0  0  0  0  0  0
   -2.8591   -0.2735   -2.8919 H   0  0  0  0  0  0  0  0  0  0  0  0
   -2.2677    1.4556   -2.8682 H   0  0  0  0  0  0  0  0  0  0  0  0
   -3.9797    0.8855   -4.6702 H   0  0  0  0  0  0  0  0  0  0  0  0
   -2.4529    1.7004   -5.2442 H   0  0  0  0  0  0  0  0  0  0  0  0
   -1.3206   -1.7959   -6.3960 H   0  0  0  0  0  0  0  0  0  0  0  0
   -0.6792   -0.0883   -6.4007 H   0  0  0  0  0  0  0  0  0  0  0  0
    0.4207   -1.2504   -4.6190 H   0  0  0  0  0  0  0  0  0  0  0  0
   -1.1283   -2.0059   -4.0090 H   0  0  0  0  0  0  0  0  0  0  0  0
  1  2  1  0  0  0  0
  1  6  1  0  0  0  0
  2  3  1  0  0  0  0
  3  4  1  0  0  0  0
  4  8  1  0  0  0  0
  5  4  2  0  0  0  0
  5 28  1  0  0  0  0
  6  5  1  0  0  0  0
  6 11  1  0  0  0  0
  7  3  2  0  0  0  0
  8  9  2  0  0  0  0
  8 10  1  0  0  0  0
 10 26  1  0  0  0  0
 11 27  1  0  0  0  0
 12 11  1  0  0  0  0
 12 30  1  0  0  0  0
 12 32  1  0  0  0  0
 13  1  2  0  0  0  0
 14 13  1  0  0  0  0
 15 14  2  0  0  0  0
 15 16  1  0  0  0  0
 16  2  2  0  0  0  0
 17 15  1  0  0  0  0
 18 14  1  0  0  0  0
 18 23  1  0  0  0  0
 19 18  1  0  0  0  0
 19 40  1  0  0  0  0
 20 19  1  0  0  0  0
 20 21  1  0  0  0  0
 21 22  1  0  0  0  0
 22 35  1  0  0  0  0
 22 23  1  0  0  0  0
 23 33  1  0  0  0  0
 23 34  1  0  0  0  0
 24 21  1  0  0  0  0
 25 16  1  0  0  0  0
 29 11  1  0  0  0  0
 31 12  1  0  0  0  0
 36 22  1  0  0  0  0
 37 20  1  0  0  0  0
 38 20  1  0  0  0  0
 39 19  1  0  0  0  0
M  END