AMF12
  Mrv1674 09121610113D          

 46 50  0  0  0  0            999 V2000
    0.0000    0.0000    0.0000 F   0  0  0  0  0  0  0  0  0  0  0  0
    1.3577    0.0000    0.0000 C   0  0  0  0  0  0  0  0  0  0  0  0
    2.1023    0.0000    1.2261 C   0  0  0  0  0  0  0  0  0  0  0  0
    1.5175   -0.1173    2.4885 N   0  0  2  0  0  0  0  0  0  0  0  0
    0.0783    0.1260    2.7342 C   0  0  1  0  0  0  0  0  0  0  0  0
   -0.0120   -0.0659    4.2910 C   0  0  2  0  0  0  0  0  0  0  0  0
   -0.2261    1.6743    2.6745 C   0  0  1  0  0  0  0  0  0  0  0  0
    2.2101    0.4913    3.6465 C   0  0  2  0  0  0  0  0  0  0  0  0
    1.0427    1.0677    4.5410 C   0  0  1  0  0  0  0  0  0  0  0  0
    0.3996    2.2359    3.8945 N   0  0  1  0  0  0  0  0  0  0  0  0
    1.2475    3.3744    3.6735 C   0  0  0  0  0  0  0  0  0  0  0  0
    3.5107    0.0044    1.1231 C   0  0  0  0  0  0  0  0  0  0  0  0
    4.1680   -0.0021   -0.1227 C   0  0  0  0  0  0  0  0  0  0  0  0
    5.5755   -0.0150   -0.2011 N   0  0  0  0  0  0  0  0  0  0  0  0
    6.3608   -0.0830    0.9961 C   0  0  1  0  0  0  0  0  0  0  0  0
    7.7021    0.6131    1.1233 C   0  0  2  0  0  0  0  0  0  0  0  0
    6.5359    1.1088    1.9211 C   0  0  2  0  0  0  0  0  0  0  0  0
    6.1895   -0.0493   -1.4272 C   0  0  0  0  0  0  0  0  0  0  0  0
    2.0152   -0.0004   -1.2313 C   0  0  0  0  0  0  0  0  0  0  0  0
    3.4094    0.0029   -1.3181 C   0  0  0  0  0  0  0  0  0  0  0  0
    4.0460    0.0123   -2.6511 C   0  0  0  0  0  0  0  0  0  0  0  0
    3.3749    0.0709   -3.6899 O   0  0  0  0  0  0  0  0  0  0  0  0
    5.5091   -0.0427   -2.6207 C   0  0  0  0  0  0  0  0  0  0  0  0
    6.2545   -0.0946   -3.8734 C   0  0  0  0  0  0  0  0  0  0  0  0
    7.6133    0.0733   -3.7233 O   0  0  0  0  0  0  0  0  0  0  0  0
    5.8724   -0.2712   -5.0315 O   0  0  0  0  0  0  0  0  0  0  0  0
    0.3263   -1.0595    4.6517 H   0  0  0  0  0  0  0  0  0  0  0  0
   -1.0253    0.1588    4.6855 H   0  0  0  0  0  0  0  0  0  0  0  0
    0.1573    2.1280    1.7246 H   0  0  0  0  0  0  0  0  0  0  0  0
   -1.3312    1.8438    2.7410 H   0  0  0  0  0  0  0  0  0  0  0  0
   -0.5804   -0.5071    2.1064 H   0  0  0  0  0  0  0  0  0  0  0  0
    2.0502    3.2160    2.9015 H   0  0  0  0  0  0  0  0  0  0  0  0
    1.7363    3.6573    4.6424 H   0  0  0  0  0  0  0  0  0  0  0  0
    0.5996    4.2249    3.3314 H   0  0  0  0  0  0  0  0  0  0  0  0
    1.3384    1.2754    5.5880 H   0  0  0  0  0  0  0  0  0  0  0  0
    2.9358    1.2919    3.3499 H   0  0  0  0  0  0  0  0  0  0  0  0
    2.7570   -0.3160    4.1981 H   0  0  0  0  0  0  0  0  0  0  0  0
    8.0816    1.2383    0.2943 H   0  0  0  0  0  0  0  0  0  0  0  0
    8.5157    0.0612    1.6282 H   0  0  0  0  0  0  0  0  0  0  0  0
    6.4989    0.9204    3.0091 H   0  0  0  0  0  0  0  0  0  0  0  0
    6.0828    2.0805    1.6538 H   0  0  0  0  0  0  0  0  0  0  0  0
    6.2538   -1.0864    1.4733 H   0  0  0  0  0  0  0  0  0  0  0  0
    7.3004   -0.0865   -1.4086 H   0  0  0  0  0  0  0  0  0  0  0  0
    4.1161   -0.0055    2.0448 H   0  0  0  0  0  0  0  0  0  0  0  0
    8.0351    0.0262   -4.5957 H   0  0  0  0  0  0  0  0  0  0  0  0
    1.4252    0.0018   -2.1662 H   0  0  0  0  0  0  0  0  0  0  0  0
  1  2  1  0  0  0  0
  2  3  1  0  0  0  0
  3  4  1  0  0  0  0
  4  5  1  0  0  0  0
  4  8  1  0  0  0  0
  5 31  1  6  0  0  0
  5  6  1  0  0  0  0
  6  9  1  0  0  0  0
  6 27  1  0  0  0  0
  6 28  1  0  0  0  0
  7  5  1  0  0  0  0
  7 30  1  0  0  0  0
  7 10  1  0  0  0  0
  8 37  1  0  0  0  0
  8  9  1  0  0  0  0
  9 35  1  1  0  0  0
 10  9  1  0  0  0  0
 11 10  1  0  0  0  0
 11 33  1  0  0  0  0
 12  3  2  0  0  0  0
 12 44  1  0  0  0  0
 13 12  1  0  0  0  0
 14 13  1  0  0  0  0
 14 15  1  0  0  0  0
 15 16  1  0  0  0  0
 15 42  1  0  0  0  0
 15 17  1  0  0  0  0
 16 39  1  0  0  0  0
 16 17  1  0  0  0  0
 17 40  1  0  0  0  0
 18 14  1  0  0  0  0
 18 43  1  0  0  0  0
 19  2  2  0  0  0  0
 20 13  2  0  0  0  0
 20 19  1  0  0  0  0
 21 20  1  0  0  0  0
 21 23  1  0  0  0  0
 22 21  2  0  0  0  0
 23 18  2  0  0  0  0
 24 23  1  0  0  0  0
 24 25  1  0  0  0  0
 26 24  2  0  0  0  0
 29  7  1  0  0  0  0
 32 11  1  0  0  0  0
 34 11  1  0  0  0  0
 36  8  1  0  0  0  0
 38 16  1  0  0  0  0
 41 17  1  0  0  0  0
 45 25  1  0  0  0  0
 46 19  1  0  0  0  0
M  END