AMF1
  Mrv1674 09121610113D          

 27 28  0  0  0  0            999 V2000
    0.0000    0.0000    0.0000 O   0  0  0  0  0  0  0  0  0  0  0  0
    1.4181    0.0000    0.0000 C   0  0  2  0  0  0  0  0  0  0  0  0
    1.9932    0.0000    1.3188 N   0  0  0  0  0  0  0  0  0  0  0  0
    1.4493   -0.4810    2.5190 C   0  0  0  0  0  0  0  0  0  0  0  0
    0.1802   -0.9612    2.7980 N   0  0  0  0  0  0  0  0  0  0  0  0
   -0.0675   -1.2078    4.1901 C   0  0  0  0  0  0  0  0  0  0  0  0
   -1.4168   -1.4434    4.5363 N   0  0  2  0  0  0  0  0  0  0  0  0
    2.4928   -0.4076    3.4995 C   0  0  0  0  0  0  0  0  0  0  0  0
    2.1987   -0.8141    4.8826 C   0  0  0  0  0  0  0  0  0  0  0  0
    3.0389   -0.8243    5.7917 O   0  0  0  0  0  0  0  0  0  0  0  0
    0.8622   -1.2084    5.1412 N   0  0  0  0  0  0  0  0  0  0  0  0
    3.3444    0.3203    1.6271 C   0  0  0  0  0  0  0  0  0  0  0  0
    3.6554    0.0917    2.9134 N   0  0  0  0  0  0  0  0  0  0  0  0
   -0.6089    1.2430    0.3584 C   0  0  1  0  0  0  0  0  0  0  0  0
   -2.1060    0.9463    0.4559 C   0  0  2  0  0  0  0  0  0  0  0  0
   -2.3324   -0.3170    1.0498 O   0  0  0  0  0  0  0  0  0  0  0  0
   -1.5488   -1.8064    5.4566 H   0  0  0  0  0  0  0  0  0  0  0  0
   -1.9774   -1.8784    3.8381 H   0  0  0  0  0  0  0  0  0  0  0  0
   -0.5717   -0.7672    2.1676 H   0  0  0  0  0  0  0  0  0  0  0  0
    4.0208    0.7166    0.8635 H   0  0  0  0  0  0  0  0  0  0  0  0
    1.8192    0.8942   -0.5588 H   0  0  0  0  0  0  0  0  0  0  0  0
    1.6729   -0.9650   -0.5361 H   0  0  0  0  0  0  0  0  0  0  0  0
   -2.0616   -0.9851    0.4057 H   0  0  0  0  0  0  0  0  0  0  0  0
   -2.5783    0.9922   -0.5600 H   0  0  0  0  0  0  0  0  0  0  0  0
   -2.5982    1.6871    1.1406 H   0  0  0  0  0  0  0  0  0  0  0  0
   -0.2098    1.6023    1.3418 H   0  0  0  0  0  0  0  0  0  0  0  0
   -0.3977    2.0054   -0.4349 H   0  0  0  0  0  0  0  0  0  0  0  0
  1  2  1  0  0  0  0
  1 14  1  0  0  0  0
  2  3  1  0  0  0  0
  3 12  1  0  0  0  0
  3  4  1  0  0  0  0
  4  5  1  0  0  0  0
  4  8  2  0  0  0  0
  5  6  1  0  0  0  0
  6  7  1  0  0  0  0
  6 11  2  0  0  0  0
  7 17  1  0  0  0  0
  8  9  1  0  0  0  0
  9 11  1  0  0  0  0
  9 10  2  0  0  0  0
 12 13  2  0  0  0  0
 13  8  1  0  0  0  0
 14 15  1  0  0  0  0
 14 26  1  0  0  0  0
 15 16  1  0  0  0  0
 15 25  1  0  0  0  0
 18  7  1  0  0  0  0
 19  5  1  0  0  0  0
 20 12  1  0  0  0  0
 21  2  1  0  0  0  0
 22  2  1  0  0  0  0
 23 16  1  0  0  0  0
 24 15  1  0  0  0  0
 27 14  1  0  0  0  0
M  END