AMF14
  Mrv1674 09121610113D          

 56 59  0  0  0  0            999 V2000
    0.0000    0.0000    0.0000 O   0  0  0  0  0  0  0  0  0  0  0  0
    1.4187    0.0000    0.0000 C   0  0  2  0  0  0  0  0  0  0  0  0
    1.9223    0.0000    1.4570 C   0  0  2  0  0  0  0  0  0  0  0  0
    2.4801    1.3769    1.8656 C   0  0  2  0  0  0  0  0  0  0  0  0
    1.3894    2.2860    1.7914 O   0  0  0  0  0  0  0  0  0  0  0  0
    3.6074    1.8117    0.9070 C   0  0  0  0  0  0  0  0  0  0  0  0
    4.6281    2.3699    1.3349 O   0  0  0  0  0  0  0  0  0  0  0  0
    3.0114    1.3437    3.2949 C   0  0  0  0  0  0  0  0  0  0  0  0
    2.9997    2.5937    3.8021 O   0  0  0  0  0  0  0  0  0  0  0  0
    3.4101    0.1994    3.9270 C   0  0  0  0  0  0  0  0  0  0  0  0
    3.9526    0.2702    5.3089 C   0  0  0  0  0  0  0  0  0  0  0  0
    3.7612    1.2912    6.0222 O   0  0  0  0  0  0  0  0  0  0  0  0
    4.7303   -0.7386    5.8083 N   0  0  0  0  0  0  0  0  0  0  0  0
    3.0005   -1.0686    1.7444 C   0  0  2  0  0  0  0  0  0  0  0  0
    2.7106   -2.3542    1.1224 N   0  0  1  0  0  0  0  0  0  0  0  0
    3.8371   -3.2628    1.1298 C   0  0  0  0  0  0  0  0  0  0  0  0
    1.4753   -2.9684    1.5582 C   0  0  0  0  0  0  0  0  0  0  0  0
    3.2499   -1.0991    3.2622 C   0  0  0  0  0  0  0  0  0  0  0  0
    3.3243   -2.1751    3.8729 O   0  0  0  0  0  0  0  0  0  0  0  0
    1.9443    1.1992   -0.8120 C   0  0  2  0  0  0  0  0  0  0  0  0
    1.6502    1.0386   -2.3024 C   0  0  2  0  0  0  0  0  0  0  0  0
    2.7941    0.5244   -3.1176 C   0  0  0  0  0  0  0  0  0  0  0  0
    4.1369    0.7010   -2.7114 C   0  0  0  0  0  0  0  0  0  0  0  0
    5.1613    0.2169   -3.5525 C   0  0  0  0  0  0  0  0  0  0  0  0
    6.5062    0.2875   -3.3099 O   0  0  0  0  0  0  0  0  0  0  0  0
    4.8500   -0.4099   -4.7789 C   0  0  0  0  0  0  0  0  0  0  0  0
    2.5011   -0.1055   -4.3271 C   0  0  0  0  0  0  0  0  0  0  0  0
    3.5265   -0.5653   -5.1556 C   0  0  0  0  0  0  0  0  0  0  0  0
    1.1734    2.3587   -2.8934 C   0  0  0  0  0  0  0  0  0  0  0  0
    3.3713    1.4590   -0.4846 C   0  0  0  0  0  0  0  0  0  0  0  0
    4.3659    1.3326   -1.4150 C   0  0  0  0  0  0  0  0  0  0  0  0
    5.6524    1.7383   -1.2085 O   0  0  0  0  0  0  0  0  0  0  0  0
    1.7026    3.1473    2.1052 H   0  0  0  0  0  0  0  0  0  0  0  0
    3.3655    2.6303    4.7101 H   0  0  0  0  0  0  0  0  0  0  0  0
    4.7574   -1.6248    5.3649 H   0  0  0  0  0  0  0  0  0  0  0  0
    5.0037   -0.6835    6.7603 H   0  0  0  0  0  0  0  0  0  0  0  0
    4.7310   -2.7485    0.6891 H   0  0  0  0  0  0  0  0  0  0  0  0
    4.1022   -3.6334    2.1572 H   0  0  0  0  0  0  0  0  0  0  0  0
    3.5781   -4.1436    0.4849 H   0  0  0  0  0  0  0  0  0  0  0  0
    1.4596   -3.1960    2.6588 H   0  0  0  0  0  0  0  0  0  0  0  0
    0.6248   -2.2770    1.3120 H   0  0  0  0  0  0  0  0  0  0  0  0
    1.3316   -3.9259    0.9922 H   0  0  0  0  0  0  0  0  0  0  0  0
    3.9737   -0.7080    1.2842 H   0  0  0  0  0  0  0  0  0  0  0  0
    1.0300   -0.2074    2.1167 H   0  0  0  0  0  0  0  0  0  0  0  0
    6.6800    0.5594   -2.3989 H   0  0  0  0  0  0  0  0  0  0  0  0
    5.6747   -0.7664   -5.4130 H   0  0  0  0  0  0  0  0  0  0  0  0
    3.2814   -1.0564   -6.1101 H   0  0  0  0  0  0  0  0  0  0  0  0
    1.4518   -0.2380   -4.6309 H   0  0  0  0  0  0  0  0  0  0  0  0
    1.9479    3.1519   -2.7658 H   0  0  0  0  0  0  0  0  0  0  0  0
    0.2356    2.6886   -2.3849 H   0  0  0  0  0  0  0  0  0  0  0  0
    0.9641    2.2355   -3.9834 H   0  0  0  0  0  0  0  0  0  0  0  0
    0.7976    0.2985   -2.3920 H   0  0  0  0  0  0  0  0  0  0  0  0
    5.7487    2.1617   -0.3367 H   0  0  0  0  0  0  0  0  0  0  0  0
    1.3588    2.1070   -0.4622 H   0  0  0  0  0  0  0  0  0  0  0  0
    1.6862   -0.9588   -0.5276 H   0  0  0  0  0  0  0  0  0  0  0  0
   -0.2901    0.8212    0.4201 H   0  0  0  0  0  0  0  0  0  0  0  0
  1  2  1  0  0  0  0
  1 56  1  0  0  0  0
  2 55  1  6  0  0  0
  2  3  1  0  0  0  0
  3 14  1  0  0  0  0
  3  4  1  0  0  0  0
  3 44  1  1  0  0  0
  4  5  1  6  0  0  0
  4  8  1  0  0  0  0
  5 33  1  0  0  0  0
  6  4  1  0  0  0  0
  6  7  2  0  0  0  0
  8  9  1  0  0  0  0
  8 10  2  0  0  0  0
  9 34  1  0  0  0  0
 10 11  1  0  0  0  0
 11 13  1  0  0  0  0
 11 12  2  0  0  0  0
 13 36  1  0  0  0  0
 14 43  1  6  0  0  0
 14 18  1  0  0  0  0
 15 14  1  0  0  0  0
 15 16  1  0  0  0  0
 15 17  1  0  0  0  0
 16 38  1  0  0  0  0
 17 40  1  0  0  0  0
 18 10  1  0  0  0  0
 18 19  2  0  0  0  0
 20  2  1  0  0  0  0
 20 30  1  0  0  0  0
 20 54  1  1  0  0  0
 21 20  1  0  0  0  0
 21 52  1  6  0  0  0
 22 21  1  0  0  0  0
 22 23  1  0  0  0  0
 23 31  1  0  0  0  0
 24 23  2  0  0  0  0
 24 25  1  0  0  0  0
 25 45  1  0  0  0  0
 26 24  1  0  0  0  0
 27 22  2  0  0  0  0
 28 26  2  0  0  0  0
 28 27  1  0  0  0  0
 29 21  1  0  0  0  0
 29 49  1  0  0  0  0
 29 50  1  0  0  0  0
 30  6  1  0  0  0  0
 31 30  2  0  0  0  0
 31 32  1  0  0  0  0
 32 53  1  0  0  0  0
 35 13  1  0  0  0  0
 37 16  1  0  0  0  0
 39 16  1  0  0  0  0
 41 17  1  0  0  0  0
 42 17  1  0  0  0  0
 46 26  1  0  0  0  0
 47 28  1  0  0  0  0
 48 27  1  0  0  0  0
 51 29  1  0  0  0  0
M  END