AMF18
  Mrv1674 09121610113D          

 43 44  0  0  0  0            999 V2000
    0.0000    0.0000    0.0000 O   0  0  0  0  0  0  0  0  0  0  0  0
    1.4212    0.0000    0.0000 C   0  0  2  0  0  0  0  0  0  0  0  0
    1.9760    0.0000    1.4432 C   0  0  2  0  0  0  0  0  0  0  0  0
    1.7739   -1.2717    2.1055 N   0  0  2  0  0  0  0  0  0  0  0  0
    2.1670   -1.2616    3.5154 C   0  0  2  0  0  0  0  0  0  0  0  0
    2.4890   -2.6821    4.0255 C   0  0  2  0  0  0  0  0  0  0  0  0
    3.2198   -2.6413    5.3210 C   0  0  0  0  0  0  0  0  0  0  0  0
    4.5758   -2.2969    5.3531 C   0  0  0  0  0  0  0  0  0  0  0  0
    5.2761   -2.2740    6.5560 C   0  0  0  0  0  0  0  0  0  0  0  0
    4.6075   -2.6021    7.7436 C   0  0  0  0  0  0  0  0  0  0  0  0
    5.2293   -2.6039    8.9713 O   0  0  0  0  0  0  0  0  0  0  0  0
    2.5664   -2.9659    6.5173 C   0  0  0  0  0  0  0  0  0  0  0  0
    3.2467   -2.9506    7.7295 C   0  0  0  0  0  0  0  0  0  0  0  0
    1.0772   -0.6508    4.3976 C   0  0  0  0  0  0  0  0  0  0  0  0
    1.8999    1.2269   -0.7239 C   0  0  0  0  0  0  0  0  0  0  0  0
    3.2385    1.2848   -1.1213 C   0  0  0  0  0  0  0  0  0  0  0  0
    3.7014    2.4235   -1.7989 C   0  0  0  0  0  0  0  0  0  0  0  0
    5.0300    2.4206   -2.1576 O   0  0  0  0  0  0  0  0  0  0  0  0
    1.0316    2.2839   -1.0013 C   0  0  0  0  0  0  0  0  0  0  0  0
    1.5153    3.4094   -1.6840 C   0  0  0  0  0  0  0  0  0  0  0  0
    0.7137    4.4847   -1.9901 O   0  0  0  0  0  0  0  0  0  0  0  0
    2.8539    3.4991   -2.0902 C   0  0  0  0  0  0  0  0  0  0  0  0
    6.1537   -2.3492    8.8375 H   0  0  0  0  0  0  0  0  0  0  0  0
    6.3408   -2.0029    6.5750 H   0  0  0  0  0  0  0  0  0  0  0  0
    5.0960   -2.0418    4.4172 H   0  0  0  0  0  0  0  0  0  0  0  0
    2.7418   -3.2052    8.6717 H   0  0  0  0  0  0  0  0  0  0  0  0
    1.4993   -3.2368    6.4989 H   0  0  0  0  0  0  0  0  0  0  0  0
    3.1237   -3.2276    3.2752 H   0  0  0  0  0  0  0  0  0  0  0  0
    1.5318   -3.2570    4.1354 H   0  0  0  0  0  0  0  0  0  0  0  0
    0.9337    0.4299    4.1596 H   0  0  0  0  0  0  0  0  0  0  0  0
    1.3853   -0.7462    5.4672 H   0  0  0  0  0  0  0  0  0  0  0  0
    0.1041   -1.1786    4.2563 H   0  0  0  0  0  0  0  0  0  0  0  0
    3.1067   -0.6383    3.6547 H   0  0  0  0  0  0  0  0  0  0  0  0
    2.2609   -1.9989    1.6148 H   0  0  0  0  0  0  0  0  0  0  0  0
    1.4285    0.7921    2.0278 H   0  0  0  0  0  0  0  0  0  0  0  0
    3.0649    0.2965    1.3970 H   0  0  0  0  0  0  0  0  0  0  0  0
    5.2151    3.2487   -2.6244 H   0  0  0  0  0  0  0  0  0  0  0  0
    3.9313    0.4575   -0.9172 H   0  0  0  0  0  0  0  0  0  0  0  0
   -0.1812    4.2874   -1.6759 H   0  0  0  0  0  0  0  0  0  0  0  0
    3.2119    4.3900   -2.6216 H   0  0  0  0  0  0  0  0  0  0  0  0
   -0.0233    2.2225   -0.6944 H   0  0  0  0  0  0  0  0  0  0  0  0
    1.7811   -0.9139   -0.5581 H   0  0  0  0  0  0  0  0  0  0  0  0
   -0.2801   -0.7103    0.5910 H   0  0  0  0  0  0  0  0  0  0  0  0
  1  2  1  0  0  0  0
  1 43  1  0  0  0  0
  2 42  1  6  0  0  0
  2  3  1  0  0  0  0
  3 35  1  0  0  0  0
  3  4  1  0  0  0  0
  4  5  1  0  0  0  0
  5 33  1  1  0  0  0
  5  6  1  0  0  0  0
  5 14  1  0  0  0  0
  6 29  1  0  0  0  0
  6  7  1  0  0  0  0
  7  8  2  0  0  0  0
  7 12  1  0  0  0  0
  8  9  1  0  0  0  0
  9 24  1  0  0  0  0
  9 10  2  0  0  0  0
 10 11  1  0  0  0  0
 12 13  2  0  0  0  0
 13 10  1  0  0  0  0
 13 26  1  0  0  0  0
 14 31  1  0  0  0  0
 15  2  1  0  0  0  0
 16 15  2  0  0  0  0
 16 38  1  0  0  0  0
 17 16  1  0  0  0  0
 18 17  1  0  0  0  0
 19 15  1  0  0  0  0
 19 41  1  0  0  0  0
 20 19  2  0  0  0  0
 21 20  1  0  0  0  0
 21 39  1  0  0  0  0
 22 17  2  0  0  0  0
 22 20  1  0  0  0  0
 23 11  1  0  0  0  0
 25  8  1  0  0  0  0
 27 12  1  0  0  0  0
 28  6  1  0  0  0  0
 30 14  1  0  0  0  0
 32 14  1  0  0  0  0
 34  4  1  0  0  0  0
 36  3  1  0  0  0  0
 37 18  1  0  0  0  0
 40 22  1  0  0  0  0
M  END