AMF16
  Mrv1674 09121610113D          

 48 51  0  0  0  0            999 V2000
    0.0000    0.0000    0.0000 F   0  0  0  0  0  0  0  0  0  0  0  0
    1.3573    0.0000    0.0000 C   0  0  0  0  0  0  0  0  0  0  0  0
    2.1003    0.0000    1.2238 C   0  0  0  0  0  0  0  0  0  0  0  0
    1.5200    0.0917    2.5032 N   0  0  2  0  0  0  0  0  0  0  0  0
    1.8477   -0.9658    3.4456 C   0  0  2  0  0  0  0  0  0  0  0  0
    1.4939   -0.5815    4.8976 C   0  0  1  0  0  0  0  0  0  0  0  0
    0.1313   -0.0945    5.0447 N   0  0  1  0  0  0  0  0  0  0  0  0
   -0.1828    0.3222    6.4059 C   0  0  1  0  0  0  0  0  0  0  0  0
   -0.0234   -0.7713    7.4487 C   0  0  0  0  0  0  0  0  0  0  0  0
    0.1497    0.5514    2.6280 C   0  0  2  0  0  0  0  0  0  0  0  0
   -0.1896    0.9489    4.0799 C   0  0  2  0  0  0  0  0  0  0  0  0
    3.5061   -0.0254    1.1281 C   0  0  0  0  0  0  0  0  0  0  0  0
    2.0172   -0.0031   -1.2322 C   0  0  0  0  0  0  0  0  0  0  0  0
    3.4107   -0.0275   -1.3132 C   0  0  0  0  0  0  0  0  0  0  0  0
    4.1672   -0.0394   -0.1160 C   0  0  0  0  0  0  0  0  0  0  0  0
    5.5751   -0.0564   -0.1904 N   0  0  0  0  0  0  0  0  0  0  0  0
    6.3572   -0.0109    1.0101 C   0  0  1  0  0  0  0  0  0  0  0  0
    6.4938   -1.2072    1.9357 C   0  0  2  0  0  0  0  0  0  0  0  0
    7.6771   -0.7457    1.1427 C   0  0  2  0  0  0  0  0  0  0  0  0
    6.1930   -0.0338   -1.4139 C   0  0  0  0  0  0  0  0  0  0  0  0
    4.0527   -0.0446   -2.6453 C   0  0  0  0  0  0  0  0  0  0  0  0
    3.3829   -0.0819   -3.6856 O   0  0  0  0  0  0  0  0  0  0  0  0
    5.5160   -0.0226   -2.6098 C   0  0  0  0  0  0  0  0  0  0  0  0
    6.2661    0.0150   -3.8601 C   0  0  0  0  0  0  0  0  0  0  0  0
    7.6216   -0.1738   -3.7053 O   0  0  0  0  0  0  0  0  0  0  0  0
    5.8904    0.1949   -5.0198 O   0  0  0  0  0  0  0  0  0  0  0  0
   -0.5560   -1.7037    7.1439 H   0  0  0  0  0  0  0  0  0  0  0  0
    1.0529   -1.0150    7.6171 H   0  0  0  0  0  0  0  0  0  0  0  0
   -0.4579   -0.4108    8.4124 H   0  0  0  0  0  0  0  0  0  0  0  0
    0.4441    1.2098    6.7200 H   0  0  0  0  0  0  0  0  0  0  0  0
   -1.2603    0.6562    6.4026 H   0  0  0  0  0  0  0  0  0  0  0  0
    1.5949   -1.5127    5.5229 H   0  0  0  0  0  0  0  0  0  0  0  0
    2.2505    0.1708    5.2674 H   0  0  0  0  0  0  0  0  0  0  0  0
    2.9520   -1.1741    3.4050 H   0  0  0  0  0  0  0  0  0  0  0  0
    1.3020   -1.9177    3.1792 H   0  0  0  0  0  0  0  0  0  0  0  0
    0.3330    1.9198    4.3229 H   0  0  0  0  0  0  0  0  0  0  0  0
   -1.2998    1.1311    4.1257 H   0  0  0  0  0  0  0  0  0  0  0  0
   -0.5811   -0.2402    2.2903 H   0  0  0  0  0  0  0  0  0  0  0  0
    0.0137    1.4591    1.9768 H   0  0  0  0  0  0  0  0  0  0  0  0
    4.1049   -0.0209    2.0546 H   0  0  0  0  0  0  0  0  0  0  0  0
    6.0135   -2.1653    1.6666 H   0  0  0  0  0  0  0  0  0  0  0  0
    6.4571   -1.0174    3.0235 H   0  0  0  0  0  0  0  0  0  0  0  0
    8.5044   -0.2176    1.6508 H   0  0  0  0  0  0  0  0  0  0  0  0
    8.0414   -1.3815    0.3149 H   0  0  0  0  0  0  0  0  0  0  0  0
    6.2772    0.9953    1.4867 H   0  0  0  0  0  0  0  0  0  0  0  0
    7.3046   -0.0221   -1.3922 H   0  0  0  0  0  0  0  0  0  0  0  0
    8.0467   -0.1357   -4.5767 H   0  0  0  0  0  0  0  0  0  0  0  0
    1.4297    0.0006   -2.1685 H   0  0  0  0  0  0  0  0  0  0  0  0
  1  2  1  0  0  0  0
  2  3  1  0  0  0  0
  3  4  1  0  0  0  0
  4 10  1  0  0  0  0
  4  5  1  0  0  0  0
  5  6  1  0  0  0  0
  6  7  1  0  0  0  0
  6 33  1  0  0  0  0
  6 32  1  0  0  0  0
  7  8  1  0  0  0  0
  8 30  1  0  0  0  0
  8  9  1  0  0  0  0
  9 28  1  0  0  0  0
  9 29  1  0  0  0  0
 10 11  1  0  0  0  0
 11  7  1  0  0  0  0
 11 37  1  0  0  0  0
 11 36  1  0  0  0  0
 12  3  2  0  0  0  0
 12 40  1  0  0  0  0
 13  2  2  0  0  0  0
 14 13  1  0  0  0  0
 14 15  2  0  0  0  0
 15 12  1  0  0  0  0
 16 15  1  0  0  0  0
 16 17  1  0  0  0  0
 17 19  1  0  0  0  0
 17 45  1  0  0  0  0
 17 18  1  0  0  0  0
 18 42  1  0  0  0  0
 19 18  1  0  0  0  0
 19 43  1  0  0  0  0
 20 16  1  0  0  0  0
 20 46  1  0  0  0  0
 21 14  1  0  0  0  0
 21 23  1  0  0  0  0
 22 21  2  0  0  0  0
 23 20  2  0  0  0  0
 24 23  1  0  0  0  0
 24 25  1  0  0  0  0
 26 24  2  0  0  0  0
 27  9  1  0  0  0  0
 31  8  1  0  0  0  0
 34  5  1  0  0  0  0
 35  5  1  0  0  0  0
 38 10  1  0  0  0  0
 39 10  1  0  0  0  0
 41 18  1  0  0  0  0
 44 19  1  0  0  0  0
 47 25  1  0  0  0  0
 48 13  1  0  0  0  0
M  END