AMF19
  Mrv1674 09121610113D          

 17 17  0  0  0  0            999 V2000
    0.0000    0.0000    0.0000 C   0  0  0  0  0  0  0  0  0  0  0  0
    1.3988    0.0000    0.0000 C   0  0  0  0  0  0  0  0  0  0  0  0
    2.0779    0.0000    1.2251 C   0  0  0  0  0  0  0  0  0  0  0  0
    1.3178   -0.0150    2.4088 C   0  0  0  0  0  0  0  0  0  0  0  0
    2.1982    0.0245   -1.2550 C   0  0  0  0  0  0  0  0  0  0  0  0
    1.6518   -0.6278   -2.3743 N   0  0  0  0  0  0  0  0  0  0  0  0
    2.3390   -0.8556   -3.5269 N   0  0  2  0  0  0  0  0  0  0  0  0
    3.2839    0.6307   -1.3376 O   0  0  0  0  0  0  0  0  0  0  0  0
   -0.6645   -0.0104    1.2411 C   0  0  0  0  0  0  0  0  0  0  0  0
   -0.0290   -0.0223    2.4283 N   0  0  0  0  0  0  0  0  0  0  0  0
   -0.5800    0.0254   -0.9326 H   0  0  0  0  0  0  0  0  0  0  0  0
    3.1768    0.0249    1.2551 H   0  0  0  0  0  0  0  0  0  0  0  0
    1.8139   -0.0177    3.3964 H   0  0  0  0  0  0  0  0  0  0  0  0
    0.9969   -1.3647   -2.1876 H   0  0  0  0  0  0  0  0  0  0  0  0
    3.3195   -1.0343   -3.3270 H   0  0  0  0  0  0  0  0  0  0  0  0
    2.3146   -0.0032   -4.0783 H   0  0  0  0  0  0  0  0  0  0  0  0
   -1.7687   -0.0077    1.2870 H   0  0  0  0  0  0  0  0  0  0  0  0
  1  2  2  0  0  0  0
  1  9  1  0  0  0  0
  2  3  1  0  0  0  0
  3 12  1  0  0  0  0
  3  4  2  0  0  0  0
  4 10  1  0  0  0  0
  4 13  1  0  0  0  0
  5  2  1  0  0  0  0
  6  5  1  0  0  0  0
  6 14  1  0  0  0  0
  7  6  1  0  0  0  0
  7 15  1  0  0  0  0
  8  5  2  0  0  0  0
  9 17  1  0  0  0  0
  9 10  2  0  0  0  0
 11  1  1  0  0  0  0
 16  7  1  0  0  0  0
M  END