AMF24
  Mrv1674 09121610113D          

 36 38  0  0  0  0            999 V2000
    0.0000    0.0000    0.0000 C   0  0  0  0  0  0  0  0  0  0  0  0
    1.3940    0.0000    0.0000 C   0  0  0  0  0  0  0  0  0  0  0  0
    2.0872    0.0000    1.2093 C   0  0  0  0  0  0  0  0  0  0  0  0
    1.4076   -0.0046    2.4310 C   0  0  0  0  0  0  0  0  0  0  0  0
    2.3110   -0.0410    3.8645 S   0  0  2  0  0  0  0  0  0  0  0  0
    3.4691    0.7436    3.7060 O   0  0  0  0  0  0  0  0  0  0  0  0
    2.5405   -1.3699    4.2427 O   0  0  0  0  0  0  0  0  0  0  0  0
   -0.6997    0.0085    1.2067 C   0  0  0  0  0  0  0  0  0  0  0  0
   -0.0005    0.0108    2.4177 C   0  0  0  0  0  0  0  0  0  0  0  0
   -0.7274    0.0414    3.6940 C   0  0  0  0  0  0  0  0  0  0  0  0
   -0.0923    0.3140    4.8829 C   0  0  0  0  0  0  0  0  0  0  0  0
   -0.8534    0.2512    6.1748 C   0  0  0  0  0  0  0  0  0  0  0  0
   -0.2286   -0.3791    7.2486 N   0  0  0  0  0  0  0  0  0  0  0  0
   -0.7174   -0.2308    8.5588 C   0  0  0  0  0  0  0  0  0  0  0  0
   -0.2063    0.6103    9.4878 N   0  0  0  0  0  0  0  0  0  0  0  0
   -0.8906    0.4500   10.6677 C   0  0  0  0  0  0  0  0  0  0  0  0
   -2.0285   -1.2005    9.1397 S   0  0  0  0  0  0  0  0  0  0  0  0
   -1.9200   -0.4937   10.6498 C   0  0  0  0  0  0  0  0  0  0  0  0
   -2.7854   -0.8144   11.7867 C   0  0  0  0  0  0  0  0  0  0  0  0
   -2.0354    0.6460    6.2339 O   0  0  0  0  0  0  0  0  0  0  0  0
    1.2644    0.6861    4.9070 N   0  0  0  0  0  0  0  0  0  0  0  0
    1.6046    1.8823    5.6284 C   0  0  0  0  0  0  0  0  0  0  0  0
   -2.0387   -0.3145    3.5701 O   0  0  0  0  0  0  0  0  0  0  0  0
   -0.5531   -0.0046   -0.9523 H   0  0  0  0  0  0  0  0  0  0  0  0
    1.9484   -0.0004   -0.9507 H   0  0  0  0  0  0  0  0  0  0  0  0
    3.1921    0.0132    1.2076 H   0  0  0  0  0  0  0  0  0  0  0  0
   -1.8018    0.0102    1.2155 H   0  0  0  0  0  0  0  0  0  0  0  0
   -0.5998    1.0598   11.5313 H   0  0  0  0  0  0  0  0  0  0  0  0
   -2.1754   -1.1868   12.6493 H   0  0  0  0  0  0  0  0  0  0  0  0
   -3.3421    0.0975   12.1237 H   0  0  0  0  0  0  0  0  0  0  0  0
   -3.5332   -1.6023   11.5206 H   0  0  0  0  0  0  0  0  0  0  0  0
    0.7588   -0.5299    7.1848 H   0  0  0  0  0  0  0  0  0  0  0  0
    2.6761    2.1501    5.4142 H   0  0  0  0  0  0  0  0  0  0  0  0
    0.9487    2.7408    5.3213 H   0  0  0  0  0  0  0  0  0  0  0  0
    1.4861    1.7240    6.7340 H   0  0  0  0  0  0  0  0  0  0  0  0
   -2.5196   -0.1088    4.3920 H   0  0  0  0  0  0  0  0  0  0  0  0
  1  2  2  0  0  0  0
  1  8  1  0  0  0  0
  2  3  1  0  0  0  0
  3  4  2  0  0  0  0
  4  5  1  0  0  0  0
  5  7  2  0  0  0  0
  5 21  1  0  0  0  0
  6  5  2  0  0  0  0
  8 27  1  0  0  0  0
  8  9  2  0  0  0  0
  9  4  1  0  0  0  0
  9 10  1  0  0  0  0
 10 11  2  0  0  0  0
 11 21  1  0  0  0  0
 11 12  1  0  0  0  0
 12 20  2  0  0  0  0
 12 13  1  0  0  0  0
 13 14  1  0  0  0  0
 14 17  1  0  0  0  0
 14 15  2  0  0  0  0
 15 16  1  0  0  0  0
 16 28  1  0  0  0  0
 17 18  1  0  0  0  0
 18 16  2  0  0  0  0
 18 19  1  0  0  0  0
 19 30  1  0  0  0  0
 19 29  1  0  0  0  0
 21 22  1  0  0  0  0
 22 35  1  0  0  0  0
 23 10  1  0  0  0  0
 23 36  1  0  0  0  0
 24  1  1  0  0  0  0
 25  2  1  0  0  0  0
 26  3  1  0  0  0  0
 31 19  1  0  0  0  0
 32 13  1  0  0  0  0
 33 22  1  0  0  0  0
 34 22  1  0  0  0  0
M  END