AMF25
  Mrv1674 09121610113D          

 28 28  0  0  0  0            999 V2000
    0.0000    0.0000    0.0000 O   0  0  0  0  0  0  0  0  0  0  0  0
    1.3648    0.0000    0.0000 C   0  0  0  0  0  0  0  0  0  0  0  0
    1.9156    0.0000    1.1018 O   0  0  0  0  0  0  0  0  0  0  0  0
    1.9885   -0.0498   -1.4045 C   0  0  1  0  0  0  0  0  0  0  0  0
    1.5564   -1.2330   -2.1395 N   0  0  2  0  0  0  0  0  0  0  0  0
    1.5489    1.2272   -2.1682 C   0  0  1  0  0  0  0  0  0  0  0  0
    1.9001    2.4970   -1.4757 C   0  0  0  0  0  0  0  0  0  0  0  0
    0.9926    3.0684   -0.5767 C   0  0  0  0  0  0  0  0  0  0  0  0
    1.2959    4.2867    0.0409 C   0  0  0  0  0  0  0  0  0  0  0  0
    0.3659    4.8031    0.9110 O   0  0  0  0  0  0  0  0  0  0  0  0
    2.5168    4.9343   -0.2490 C   0  0  0  0  0  0  0  0  0  0  0  0
    2.7384    6.1343    0.3955 O   0  0  0  0  0  0  0  0  0  0  0  0
    3.1068    3.1478   -1.7565 C   0  0  0  0  0  0  0  0  0  0  0  0
    3.4197    4.3610   -1.1477 C   0  0  0  0  0  0  0  0  0  0  0  0
    3.5130   -0.0428   -1.2210 C   0  0  0  0  0  0  0  0  0  0  0  0
    0.5586   -1.2566   -2.2118 H   0  0  0  0  0  0  0  0  0  0  0  0
    1.8898   -2.0643   -1.6954 H   0  0  0  0  0  0  0  0  0  0  0  0
    0.7255    5.6248    1.2800 H   0  0  0  0  0  0  0  0  0  0  0  0
    3.6217    6.4429    0.1496 H   0  0  0  0  0  0  0  0  0  0  0  0
    0.0414    2.5651   -0.3428 H   0  0  0  0  0  0  0  0  0  0  0  0
    4.3699    4.8666   -1.3713 H   0  0  0  0  0  0  0  0  0  0  0  0
    3.8175    2.6965   -2.4653 H   0  0  0  0  0  0  0  0  0  0  0  0
    2.0347    1.2048   -3.1808 H   0  0  0  0  0  0  0  0  0  0  0  0
    0.4352    1.1886   -2.3180 H   0  0  0  0  0  0  0  0  0  0  0  0
    4.0174   -0.0535   -2.2160 H   0  0  0  0  0  0  0  0  0  0  0  0
    3.8430   -0.9299   -0.6294 H   0  0  0  0  0  0  0  0  0  0  0  0
    3.8089    0.8808   -0.6671 H   0  0  0  0  0  0  0  0  0  0  0  0
   -0.3289    0.0412    0.9132 H   0  0  0  0  0  0  0  0  0  0  0  0
  1 28  1  0  0  0  0
  2  1  1  0  0  0  0
  2  3  2  0  0  0  0
  4  2  1  1  0  0  0
  4 15  1  0  0  0  0
  5  4  1  0  0  0  0
  5 17  1  0  0  0  0
  6  4  1  0  0  0  0
  6  7  1  0  0  0  0
  7  8  1  0  0  0  0
  8 20  1  0  0  0  0
  8  9  2  0  0  0  0
  9 10  1  0  0  0  0
 10 18  1  0  0  0  0
 11  9  1  0  0  0  0
 11 12  1  0  0  0  0
 13  7  2  0  0  0  0
 13 14  1  0  0  0  0
 14 11  2  0  0  0  0
 15 27  1  0  0  0  0
 15 26  1  0  0  0  0
 16  5  1  0  0  0  0
 19 12  1  0  0  0  0
 21 14  1  0  0  0  0
 22 13  1  0  0  0  0
 23  6  1  0  0  0  0
 24  6  1  0  0  0  0
 25 15  1  0  0  0  0
M  END