AMF21
  Mrv1674 09121610113D          

 44 46  0  0  0  0            999 V2000
    0.0000    0.0000    0.0000 C   0  0  0  0  0  0  0  0  0  0  0  0
    1.3942    0.0000    0.0000 C   0  0  0  0  0  0  0  0  0  0  0  0
    2.1107    0.0000    1.2239 C   0  0  0  0  0  0  0  0  0  0  0  0
    1.3625   -0.0951    2.4386 C   0  0  0  0  0  0  0  0  0  0  0  0
    2.0180   -0.2225    3.6214 F   0  0  0  0  0  0  0  0  0  0  0  0
    3.5177    0.0640    1.1829 N   0  0  0  0  0  0  0  0  0  0  0  0
    4.3517    0.3156    2.3495 C   0  0  2  0  0  0  0  0  0  0  0  0
    4.8881   -0.9338    3.0292 C   0  0  0  0  0  0  0  0  0  0  0  0
    2.0770   -0.0155   -1.3160 C   0  0  0  0  0  0  0  0  0  0  0  0
    3.5270   -0.1661   -1.2349 C   0  0  0  0  0  0  0  0  0  0  0  0
    4.1616   -0.0954   -0.0204 C   0  0  0  0  0  0  0  0  0  0  0  0
    4.3038   -0.3776   -2.4513 C   0  0  0  0  0  0  0  0  0  0  0  0
    5.6607   -0.2231   -2.2823 O   0  0  0  0  0  0  0  0  0  0  0  0
    3.9439   -0.6841   -3.5893 O   0  0  0  0  0  0  0  0  0  0  0  0
    1.4432    0.1010   -2.3723 O   0  0  0  0  0  0  0  0  0  0  0  0
   -0.7279   -0.0066    1.1905 C   0  0  0  0  0  0  0  0  0  0  0  0
   -0.0652   -0.0783    2.4532 C   0  0  0  0  0  0  0  0  0  0  0  0
   -0.7426   -0.2108    3.6785 N   0  0  1  0  0  0  0  0  0  0  0  0
   -0.5880    0.8670    4.6417 C   0  0  2  0  0  0  0  0  0  0  0  0
   -1.0019    0.4248    6.0731 C   0  0  1  0  0  0  0  0  0  0  0  0
   -0.9232    1.6472    6.9835 C   0  0  0  0  0  0  0  0  0  0  0  0
   -2.3321   -0.1785    6.0813 N   0  0  1  0  0  0  0  0  0  0  0  0
   -2.0648   -0.8089    3.6888 C   0  0  2  0  0  0  0  0  0  0  0  0
   -2.4690   -1.2476    5.1139 C   0  0  2  0  0  0  0  0  0  0  0  0
   -2.0815    0.0450    1.1163 F   0  0  0  0  0  0  0  0  0  0  0  0
   -0.5331    0.0220   -0.9689 H   0  0  0  0  0  0  0  0  0  0  0  0
    5.4878   -1.5540    2.3208 H   0  0  0  0  0  0  0  0  0  0  0  0
    5.5449   -0.6201    3.8765 H   0  0  0  0  0  0  0  0  0  0  0  0
    4.0556   -1.5577    3.4358 H   0  0  0  0  0  0  0  0  0  0  0  0
    3.7668    0.9340    3.0870 H   0  0  0  0  0  0  0  0  0  0  0  0
    5.2256    0.9474    2.0107 H   0  0  0  0  0  0  0  0  0  0  0  0
    5.2714   -0.1517    0.0337 H   0  0  0  0  0  0  0  0  0  0  0  0
    6.1042   -0.3764   -3.1318 H   0  0  0  0  0  0  0  0  0  0  0  0
   -1.1385    1.3627    8.0413 H   0  0  0  0  0  0  0  0  0  0  0  0
    0.1061    2.0758    6.9321 H   0  0  0  0  0  0  0  0  0  0  0  0
   -1.6551    2.4298    6.6705 H   0  0  0  0  0  0  0  0  0  0  0  0
   -0.2238   -0.3214    6.4288 H   0  0  0  0  0  0  0  0  0  0  0  0
   -2.5514   -0.5075    7.0025 H   0  0  0  0  0  0  0  0  0  0  0  0
   -1.2088    1.7609    4.3440 H   0  0  0  0  0  0  0  0  0  0  0  0
    0.4922    1.1783    4.6759 H   0  0  0  0  0  0  0  0  0  0  0  0
   -3.5552   -1.5426    5.0830 H   0  0  0  0  0  0  0  0  0  0  0  0
   -1.8670   -2.1614    5.3923 H   0  0  0  0  0  0  0  0  0  0  0  0
   -2.0573   -1.7149    3.0228 H   0  0  0  0  0  0  0  0  0  0  0  0
   -2.8445   -0.0895    3.3024 H   0  0  0  0  0  0  0  0  0  0  0  0
  1 16  1  0  0  0  0
  2  1  2  0  0  0  0
  2  3  1  0  0  0  0
  3  4  2  0  0  0  0
  4 17  1  0  0  0  0
  4  5  1  0  0  0  0
  6  3  1  0  0  0  0
  6  7  1  0  0  0  0
  7  8  1  0  0  0  0
  7 30  1  0  0  0  0
  8 29  1  0  0  0  0
  8 28  1  0  0  0  0
  9  2  1  0  0  0  0
  9 10  1  0  0  0  0
 10 11  2  0  0  0  0
 11  6  1  0  0  0  0
 11 32  1  0  0  0  0
 12 10  1  0  0  0  0
 12 13  1  0  0  0  0
 14 12  2  0  0  0  0
 15  9  2  0  0  0  0
 16 17  2  0  0  0  0
 17 18  1  0  0  0  0
 18 23  1  0  0  0  0
 18 19  1  0  0  0  0
 19 40  1  0  0  0  0
 19 20  1  0  0  0  0
 20 22  1  0  0  0  0
 20 37  1  1  0  0  0
 20 21  1  0  0  0  0
 21 34  1  0  0  0  0
 22 38  1  0  0  0  0
 23 24  1  0  0  0  0
 24 22  1  0  0  0  0
 24 42  1  0  0  0  0
 25 16  1  0  0  0  0
 26  1  1  0  0  0  0
 27  8  1  0  0  0  0
 31  7  1  0  0  0  0
 33 13  1  0  0  0  0
 35 21  1  0  0  0  0
 36 21  1  0  0  0  0
 39 19  1  0  0  0  0
 41 24  1  0  0  0  0
 43 23  1  0  0  0  0
 44 23  1  0  0  0  0
M  END