AMF26
  Mrv1674 09121610113D          

 45 49  0  0  0  0            999 V2000
    0.0000    0.0000    0.0000 O   0  0  0  0  0  0  0  0  0  0  0  0
    1.4744    0.0000    0.0000 C   0  0  2  0  0  0  0  0  0  0  0  0
    1.9111    0.0000    1.4897 C   0  0  2  0  0  0  0  0  0  0  0  0
    3.1129    0.8751    1.8906 C   0  0  2  0  0  0  0  0  0  0  0  0
    4.3465    0.3742    1.3943 O   0  0  0  0  0  0  0  0  0  0  0  0
    3.1142    0.8982    3.4620 C   0  0  2  0  0  0  0  0  0  0  0  0
    3.3537   -0.4603    3.9523 N   0  0  1  0  0  0  0  0  0  0  0  0
    3.6124   -0.5584    5.3813 C   0  0  2  0  0  0  0  0  0  0  0  0
    4.7376    0.3038    5.8617 C   0  0  0  0  0  0  0  0  0  0  0  0
    4.7016    0.9505    7.0240 C   0  0  0  0  0  0  0  0  0  0  0  0
    2.9738    2.2581    1.2544 C   0  0  2  0  0  0  0  0  0  0  0  0
    2.1439   -1.4223    1.9904 C   0  0  2  0  0  0  0  0  0  0  0  0
    2.3731   -1.4400    3.5033 C   0  0  2  0  0  0  0  0  0  0  0  0
    1.9225    1.2098   -0.8063 C   0  0  0  0  0  0  0  0  0  0  0  0
    1.4430    1.4002   -1.9281 O   0  0  0  0  0  0  0  0  0  0  0  0
    2.9739    2.1276   -0.2530 C   0  0  2  0  0  0  0  0  0  0  0  0
   -0.3940    0.4989    1.2406 C   0  0  0  0  0  0  0  0  0  0  0  0
    0.6873    0.5901    2.1339 C   0  0  0  0  0  0  0  0  0  0  0  0
    0.6027    1.2764    3.3312 C   0  0  0  0  0  0  0  0  0  0  0  0
    1.8652    1.6043    4.0402 C   0  0  2  0  0  0  0  0  0  0  0  0
   -0.6712    1.7329    3.7156 C   0  0  0  0  0  0  0  0  0  0  0  0
   -1.6532    0.9643    1.6117 C   0  0  0  0  0  0  0  0  0  0  0  0
   -2.7749    0.8862    0.8252 O   0  0  0  0  0  0  0  0  0  0  0  0
   -1.7775    1.5586    2.8883 C   0  0  0  0  0  0  0  0  0  0  0  0
    4.5735   -0.4275    1.8815 H   0  0  0  0  0  0  0  0  0  0  0  0
    5.5528    1.5395    7.3902 H   0  0  0  0  0  0  0  0  0  0  0  0
    3.8295    0.9344    7.6912 H   0  0  0  0  0  0  0  0  0  0  0  0
    5.6261    0.3382    5.2095 H   0  0  0  0  0  0  0  0  0  0  0  0
    3.9028   -1.6330    5.5841 H   0  0  0  0  0  0  0  0  0  0  0  0
    2.6830   -0.3482    5.9912 H   0  0  0  0  0  0  0  0  0  0  0  0
    4.0140    1.5084    3.7753 H   0  0  0  0  0  0  0  0  0  0  0  0
    3.8375    2.8989    1.5694 H   0  0  0  0  0  0  0  0  0  0  0  0
    2.0276    2.7389    1.6117 H   0  0  0  0  0  0  0  0  0  0  0  0
    1.3770   -1.2877    4.0149 H   0  0  0  0  0  0  0  0  0  0  0  0
    2.7562   -2.4594    3.7929 H   0  0  0  0  0  0  0  0  0  0  0  0
    3.0247   -1.8620    1.4547 H   0  0  0  0  0  0  0  0  0  0  0  0
    1.2484   -2.0558    1.7610 H   0  0  0  0  0  0  0  0  0  0  0  0
    3.9708    1.7210   -0.5855 H   0  0  0  0  0  0  0  0  0  0  0  0
    2.8482    3.1422   -0.7178 H   0  0  0  0  0  0  0  0  0  0  0  0
    1.7579   -0.9447   -0.5318 H   0  0  0  0  0  0  0  0  0  0  0  0
    2.0322    2.7137    3.9540 H   0  0  0  0  0  0  0  0  0  0  0  0
    1.7694    1.3726    5.1339 H   0  0  0  0  0  0  0  0  0  0  0  0
   -0.7918    2.2532    4.6771 H   0  0  0  0  0  0  0  0  0  0  0  0
   -2.4946    0.5742   -0.0499 H   0  0  0  0  0  0  0  0  0  0  0  0
   -2.7707    1.9149    3.2001 H   0  0  0  0  0  0  0  0  0  0  0  0
  1  2  1  0  0  0  0
  1 17  1  0  0  0  0
  2 40  1  6  0  0  0
  2  3  1  0  0  0  0
  3  4  1  0  0  0  0
  3 12  1  1  0  0  0
  3 18  1  0  0  0  0
  4  5  1  6  0  0  0
  4  6  1  0  0  0  0
  5 25  1  0  0  0  0
  6 31  1  1  0  0  0
  6  7  1  0  0  0  0
  6 20  1  0  0  0  0
  7  8  1  0  0  0  0
  8 29  1  0  0  0  0
  8  9  1  0  0  0  0
  8 30  1  0  0  0  0
  9 10  2  0  0  0  0
 10 26  1  0  0  0  0
 10 27  1  0  0  0  0
 11  4  1  0  0  0  0
 11 32  1  0  0  0  0
 11 33  1  0  0  0  0
 12 13  1  0  0  0  0
 13  7  1  0  0  0  0
 13 35  1  0  0  0  0
 13 34  1  0  0  0  0
 14  2  1  0  0  0  0
 14 16  1  0  0  0  0
 15 14  2  0  0  0  0
 16 11  1  0  0  0  0
 17 22  2  0  0  0  0
 17 18  1  0  0  0  0
 18 19  2  0  0  0  0
 19 21  1  0  0  0  0
 19 20  1  0  0  0  0
 20 42  1  0  0  0  0
 21 43  1  0  0  0  0
 22 24  1  0  0  0  0
 23 22  1  0  0  0  0
 24 21  2  0  0  0  0
 24 45  1  0  0  0  0
 28  9  1  0  0  0  0
 36 12  1  0  0  0  0
 37 12  1  0  0  0  0
 38 16  1  0  0  0  0
 39 16  1  0  0  0  0
 41 20  1  0  0  0  0
 44 23  1  0  0  0  0
M  END