AMF27
  Mrv1674 09121610113D          

 48 50  0  0  0  0            999 V2000
    0.0000    0.0000    0.0000 C   0  0  2  0  0  0  0  0  0  0  0  0
    1.5246    0.0000    0.0000 C   0  0  1  0  0  0  0  0  0  0  0  0
    2.0716    0.0000    1.4247 C   0  0  1  0  0  0  0  0  0  0  0  0
    1.5466   -1.0829    2.2460 N   0  0  2  0  0  0  0  0  0  0  0  0
    0.0911   -1.1464    2.2357 C   0  0  2  0  0  0  0  0  0  0  0  0
   -0.5042   -1.1747    0.8308 C   0  0  1  0  0  0  0  0  0  0  0  0
    2.0840   -1.0624    3.5875 C   0  0  0  0  0  0  0  0  0  0  0  0
   -0.5364   -0.0443   -1.3735 C   0  0  0  0  0  0  0  0  0  0  0  0
   -0.3397   -1.0508   -2.3208 C   0  0  0  0  0  0  0  0  0  0  0  0
   -1.0117   -0.7376   -3.5049 N   0  0  0  0  0  0  0  0  0  0  0  0
   -1.6489    0.4930   -3.3371 C   0  0  0  0  0  0  0  0  0  0  0  0
   -1.3736    0.9619   -1.9964 C   0  0  0  0  0  0  0  0  0  0  0  0
   -1.9050    2.1804   -1.5735 C   0  0  0  0  0  0  0  0  0  0  0  0
   -2.6897    2.9209   -2.4515 C   0  0  0  0  0  0  0  0  0  0  0  0
   -2.9486    2.4513   -3.7580 C   0  0  0  0  0  0  0  0  0  0  0  0
   -2.4410    1.2481   -4.2169 C   0  0  0  0  0  0  0  0  0  0  0  0
   -3.2630    4.2267   -2.0249 C   0  0  1  0  0  0  0  0  0  0  0  0
   -1.6987    2.5473   -0.5570 H   0  0  0  0  0  0  0  0  0  0  0  0
   -4.7232    4.0961   -1.6349 C   0  0  2  0  0  0  0  0  0  0  0  0
   -2.6482    0.8966   -5.2361 H   0  0  0  0  0  0  0  0  0  0  0  0
   -5.3720    5.6190   -1.1649 S   0  0  1  0  0  0  0  0  0  0  0  0
   -1.0068   -1.2715   -4.3312 H   0  0  0  0  0  0  0  0  0  0  0  0
   -4.6851    6.0520   -0.0108 O   0  0  0  0  0  0  0  0  0  0  0  0
   -0.3632   -0.2773    2.7988 H   0  0  0  0  0  0  0  0  0  0  0  0
   -5.3490    6.4700   -2.2897 O   0  0  0  0  0  0  0  0  0  0  0  0
   -3.5695    3.0670   -4.4272 H   0  0  0  0  0  0  0  0  0  0  0  0
   -6.8899    5.2501   -0.7607 N   0  0  0  0  0  0  0  0  0  0  0  0
    0.2333   -1.9762   -2.2325 H   0  0  0  0  0  0  0  0  0  0  0  0
   -7.9948    5.2651   -1.6617 C   0  0  0  0  0  0  0  0  0  0  0  0
    1.8975   -0.9000   -0.5541 H   0  0  0  0  0  0  0  0  0  0  0  0
    3.2030   -1.1058    3.5295 H   0  0  0  0  0  0  0  0  0  0  0  0
    1.7160   -1.9670    4.1386 H   0  0  0  0  0  0  0  0  0  0  0  0
    1.7928   -0.1461    4.1720 H   0  0  0  0  0  0  0  0  0  0  0  0
   -0.2074   -2.0907    2.7729 H   0  0  0  0  0  0  0  0  0  0  0  0
   -1.6199   -1.1310    0.9163 H   0  0  0  0  0  0  0  0  0  0  0  0
   -0.2357   -2.1353    0.3198 H   0  0  0  0  0  0  0  0  0  0  0  0
   -0.3523    0.9547    0.4891 H   0  0  0  0  0  0  0  0  0  0  0  0
    1.9062    0.9112   -0.5276 H   0  0  0  0  0  0  0  0  0  0  0  0
    3.1906   -0.1242    1.3811 H   0  0  0  0  0  0  0  0  0  0  0  0
    1.8596    1.0091    1.8889 H   0  0  0  0  0  0  0  0  0  0  0  0
   -2.6847    4.6324   -1.1495 H   0  0  0  0  0  0  0  0  0  0  0  0
   -3.1726    4.9685   -2.8664 H   0  0  0  0  0  0  0  0  0  0  0  0
   -4.7977    3.3358   -0.8140 H   0  0  0  0  0  0  0  0  0  0  0  0
   -5.2774    3.6545   -2.5044 H   0  0  0  0  0  0  0  0  0  0  0  0
   -7.1350    5.0247    0.1740 H   0  0  0  0  0  0  0  0  0  0  0  0
   -8.3622    4.2214   -1.8620 H   0  0  0  0  0  0  0  0  0  0  0  0
   -7.6886    5.7361   -2.6363 H   0  0  0  0  0  0  0  0  0  0  0  0
   -8.8464    5.8606   -1.2341 H   0  0  0  0  0  0  0  0  0  0  0  0
  1  2  1  0  0  0  0
  1 37  1  0  0  0  0
  1  6  1  0  0  0  0
  2  3  1  0  0  0  0
  3 40  1  0  0  0  0
  3  4  1  0  0  0  0
  4  7  1  0  0  0  0
  5  4  1  0  0  0  0
  5 34  1  0  0  0  0
  5 24  1  0  0  0  0
  6  5  1  0  0  0  0
  6 35  1  0  0  0  0
  7 32  1  0  0  0  0
  7 33  1  0  0  0  0
  8  1  1  0  0  0  0
  9  8  2  0  0  0  0
  9 28  1  0  0  0  0
 10  9  1  0  0  0  0
 10 11  1  0  0  0  0
 11 12  1  0  0  0  0
 12  8  1  0  0  0  0
 12 13  2  0  0  0  0
 13 18  1  0  0  0  0
 14 13  1  0  0  0  0
 14 17  1  0  0  0  0
 15 14  2  0  0  0  0
 16 11  2  0  0  0  0
 16 15  1  0  0  0  0
 17 19  1  0  0  0  0
 17 41  1  0  0  0  0
 19 21  1  0  0  0  0
 19 43  1  0  0  0  0
 20 16  1  0  0  0  0
 21 27  1  0  0  0  0
 21 23  2  0  0  0  0
 22 10  1  0  0  0  0
 25 21  2  0  0  0  0
 26 15  1  0  0  0  0
 27 45  1  0  0  0  0
 29 27  1  0  0  0  0
 29 48  1  0  0  0  0
 30  2  1  0  0  0  0
 31  7  1  0  0  0  0
 36  6  1  0  0  0  0
 38  2  1  0  0  0  0
 39  3  1  0  0  0  0
 42 17  1  0  0  0  0
 44 19  1  0  0  0  0
 46 29  1  0  0  0  0
 47 29  1  0  0  0  0
M  END