AMF30
  Mrv1674 09121610113D          

 46 49  0  0  0  0            999 V2000
    0.0000    0.0000    0.0000 F   0  0  0  0  0  0  0  0  0  0  0  0
    1.3572    0.0000    0.0000 C   0  0  0  0  0  0  0  0  0  0  0  0
    2.0857    0.0000    1.2338 C   0  0  0  0  0  0  0  0  0  0  0  0
    1.4823    0.1097    2.4989 N   0  0  2  0  0  0  0  0  0  0  0  0
    1.6703   -0.9965    3.4235 C   0  0  1  0  0  0  0  0  0  0  0  0
    1.3248   -0.5987    4.8739 C   0  0  1  0  0  0  0  0  0  0  0  0
    0.0210    0.0367    4.9988 N   0  0  1  0  0  0  0  0  0  0  0  0
   -0.2721    0.4350    6.3564 C   0  0  0  0  0  0  0  0  0  0  0  0
    0.1638    0.7082    2.5967 C   0  0  1  0  0  0  0  0  0  0  0  0
   -0.1612    1.1236    4.0474 C   0  0  2  0  0  0  0  0  0  0  0  0
    3.4988   -0.0494    1.1219 C   0  0  0  0  0  0  0  0  0  0  0  0
    4.2404   -0.1538    2.2959 O   0  0  0  0  0  0  0  0  0  0  0  0
    5.5297    0.4491    2.2068 C   0  0  2  0  0  0  0  0  0  0  0  0
    4.1620   -0.0582   -0.1324 C   0  0  0  0  0  0  0  0  0  0  0  0
    5.5674   -0.0728   -0.2015 N   0  0  0  0  0  0  0  0  0  0  0  0
    6.3449   -0.1280    1.0326 C   0  0  2  0  0  0  0  0  0  0  0  0
    6.8246   -1.5358    1.3813 C   0  0  0  0  0  0  0  0  0  0  0  0
    6.1900   -0.0947   -1.4194 C   0  0  0  0  0  0  0  0  0  0  0  0
    2.0100    0.0080   -1.2365 C   0  0  0  0  0  0  0  0  0  0  0  0
    3.4017   -0.0187   -1.3222 C   0  0  0  0  0  0  0  0  0  0  0  0
    4.0499   -0.0159   -2.6536 C   0  0  0  0  0  0  0  0  0  0  0  0
    3.3818    0.0295   -3.6940 O   0  0  0  0  0  0  0  0  0  0  0  0
    5.5131   -0.0670   -2.6163 C   0  0  0  0  0  0  0  0  0  0  0  0
    6.2635   -0.0877   -3.8666 C   0  0  0  0  0  0  0  0  0  0  0  0
    7.6308   -0.0818   -3.6990 O   0  0  0  0  0  0  0  0  0  0  0  0
    5.8787   -0.1122   -5.0369 O   0  0  0  0  0  0  0  0  0  0  0  0
    0.4245    1.2258    6.7504 H   0  0  0  0  0  0  0  0  0  0  0  0
   -0.1997   -0.4661    7.0199 H   0  0  0  0  0  0  0  0  0  0  0  0
   -1.3204    0.8310    6.3973 H   0  0  0  0  0  0  0  0  0  0  0  0
    1.3062   -1.5423    5.4878 H   0  0  0  0  0  0  0  0  0  0  0  0
    2.1507    0.0599    5.2729 H   0  0  0  0  0  0  0  0  0  0  0  0
    1.0276   -1.8753    3.1244 H   0  0  0  0  0  0  0  0  0  0  0  0
    2.7467   -1.3229    3.4020 H   0  0  0  0  0  0  0  0  0  0  0  0
    0.4613    2.0260    4.3171 H   0  0  0  0  0  0  0  0  0  0  0  0
   -1.2448    1.4279    4.0759 H   0  0  0  0  0  0  0  0  0  0  0  0
    0.1343    1.6282    1.9502 H   0  0  0  0  0  0  0  0  0  0  0  0
   -0.6384   -0.0020    2.2404 H   0  0  0  0  0  0  0  0  0  0  0  0
    6.0163    0.1889    3.1835 H   0  0  0  0  0  0  0  0  0  0  0  0
    5.4212    1.5602    2.1050 H   0  0  0  0  0  0  0  0  0  0  0  0
    7.3774   -1.9941    0.5266 H   0  0  0  0  0  0  0  0  0  0  0  0
    7.5110   -1.4735    2.2598 H   0  0  0  0  0  0  0  0  0  0  0  0
    5.9601   -2.1911    1.6466 H   0  0  0  0  0  0  0  0  0  0  0  0
    7.2531    0.5324    0.8866 H   0  0  0  0  0  0  0  0  0  0  0  0
    7.3005   -0.1308   -1.3943 H   0  0  0  0  0  0  0  0  0  0  0  0
    8.0553   -0.0960   -4.5713 H   0  0  0  0  0  0  0  0  0  0  0  0
    1.4177    0.0241   -2.1692 H   0  0  0  0  0  0  0  0  0  0  0  0
  2  1  1  0  0  0  0
  2  3  1  0  0  0  0
  3  4  1  0  0  0  0
  4  9  1  0  0  0  0
  4  5  1  0  0  0  0
  5  6  1  0  0  0  0
  6  7  1  0  0  0  0
  6 31  1  0  0  0  0
  6 30  1  0  0  0  0
  7  8  1  0  0  0  0
  8 29  1  0  0  0  0
  8 27  1  0  0  0  0
  8 28  1  0  0  0  0
  9 10  1  0  0  0  0
 10  7  1  0  0  0  0
 10 35  1  0  0  0  0
 10 34  1  0  0  0  0
 11  3  2  0  0  0  0
 11 12  1  0  0  0  0
 13 12  1  0  0  0  0
 13 38  1  0  0  0  0
 14 11  1  0  0  0  0
 15 14  1  0  0  0  0
 15 16  1  0  0  0  0
 16 13  1  0  0  0  0
 16 43  1  6  0  0  0
 16 17  1  0  0  0  0
 17 42  1  0  0  0  0
 17 41  1  0  0  0  0
 18 15  1  0  0  0  0
 18 44  1  0  0  0  0
 19  2  2  0  0  0  0
 20 14  2  0  0  0  0
 20 19  1  0  0  0  0
 21 20  1  0  0  0  0
 21 23  1  0  0  0  0
 22 21  2  0  0  0  0
 23 18  2  0  0  0  0
 24 23  1  0  0  0  0
 24 25  1  0  0  0  0
 26 24  2  0  0  0  0
 32  5  1  0  0  0  0
 33  5  1  0  0  0  0
 36  9  1  0  0  0  0
 37  9  1  0  0  0  0
 39 13  1  0  0  0  0
 40 17  1  0  0  0  0
 45 25  1  0  0  0  0
 46 19  1  0  0  0  0
M  END