AMF39
  Mrv1674 09121610113D          

 45 48  0  0  0  0            999 V2000
    0.0000    0.0000    0.0000 C   0  0  0  0  0  0  0  0  0  0  0  0
    1.3722    0.0000    0.0000 N   0  0  0  0  0  0  0  0  0  0  0  0
    2.0752    0.0000    1.2226 C   0  0  0  0  0  0  0  0  0  0  0  0
    1.3439   -0.0466    2.4352 C   0  0  0  0  0  0  0  0  0  0  0  0
   -0.1285   -0.0826    2.4535 C   0  0  0  0  0  0  0  0  0  0  0  0
   -0.7659   -0.0378    1.1439 C   0  0  0  0  0  0  0  0  0  0  0  0
    2.0422   -0.0532    3.6460 C   0  0  0  0  0  0  0  0  0  0  0  0
    3.4373   -0.0168    3.6838 C   0  0  0  0  0  0  0  0  0  0  0  0
    4.1989    0.0624    2.4708 C   0  0  0  0  0  0  0  0  0  0  0  0
    3.4818    0.0634    1.2573 C   0  0  0  0  0  0  0  0  0  0  0  0
   -0.7622   -0.1442    3.5239 O   0  0  0  0  0  0  0  0  0  0  0  0
    5.5941    0.2078    2.4281 N   0  0  0  0  0  0  0  0  0  0  0  0
    6.3064    0.6305    3.6195 C   0  0  1  0  0  0  0  0  0  0  0  0
    7.7311    1.1291    3.2911 C   0  0  2  0  0  0  0  0  0  0  0  0
    8.4815    0.1926    2.4793 N   0  0  1  0  0  0  0  0  0  0  0  0
    7.7639   -0.2399    1.2979 C   0  0  2  0  0  0  0  0  0  0  0  0
    6.3380   -0.7407    1.6154 C   0  0  2  0  0  0  0  0  0  0  0  0
    2.0626    0.0196   -1.2505 C   0  0  0  0  0  0  0  0  0  0  0  0
    2.8603   -1.0740   -1.6438 C   0  0  0  0  0  0  0  0  0  0  0  0
    3.5118   -1.0602   -2.8703 C   0  0  0  0  0  0  0  0  0  0  0  0
    3.3712    0.0480   -3.7267 C   0  0  0  0  0  0  0  0  0  0  0  0
    2.5728    1.1409   -3.3421 C   0  0  0  0  0  0  0  0  0  0  0  0
    1.9255    1.1263   -2.1130 C   0  0  0  0  0  0  0  0  0  0  0  0
    4.0046    0.0615   -4.9214 F   0  0  0  0  0  0  0  0  0  0  0  0
   -2.2239   -0.0268    0.9573 C   0  0  0  0  0  0  0  0  0  0  0  0
   -2.7827    0.0529   -0.1461 O   0  0  0  0  0  0  0  0  0  0  0  0
   -0.4895    0.0274   -1.0000 H   0  0  0  0  0  0  0  0  0  0  0  0
    4.1332   -1.9135   -3.1816 H   0  0  0  0  0  0  0  0  0  0  0  0
    2.9733   -1.9479   -0.9815 H   0  0  0  0  0  0  0  0  0  0  0  0
    1.3019    1.9878   -1.8222 H   0  0  0  0  0  0  0  0  0  0  0  0
    2.4654    2.0026   -4.0185 H   0  0  0  0  0  0  0  0  0  0  0  0
   -3.0972   -0.1051    1.9925 O   0  0  0  0  0  0  0  0  0  0  0  0
   -2.6410   -0.1664    2.8469 H   0  0  0  0  0  0  0  0  0  0  0  0
    1.4691   -0.1010    4.5899 H   0  0  0  0  0  0  0  0  0  0  0  0
    4.0470   -0.0598    4.8955 F   0  0  0  0  0  0  0  0  0  0  0  0
    5.7411    1.4793    4.0953 H   0  0  0  0  0  0  0  0  0  0  0  0
    6.3812   -0.2111    4.3679 H   0  0  0  0  0  0  0  0  0  0  0  0
    8.2797    1.2519    4.2668 H   0  0  0  0  0  0  0  0  0  0  0  0
    7.6497    2.1462    2.8073 H   0  0  0  0  0  0  0  0  0  0  0  0
    9.3665    0.5880    2.2218 H   0  0  0  0  0  0  0  0  0  0  0  0
    8.3344   -1.0995    0.8465 H   0  0  0  0  0  0  0  0  0  0  0  0
    7.6884    0.5742    0.5188 H   0  0  0  0  0  0  0  0  0  0  0  0
    5.8045   -0.9024    0.6391 H   0  0  0  0  0  0  0  0  0  0  0  0
    6.4124   -1.7359    2.1436 H   0  0  0  0  0  0  0  0  0  0  0  0
    4.0364    0.1424    0.3066 H   0  0  0  0  0  0  0  0  0  0  0  0
  1  2  1  0  0  0  0
  1  6  2  0  0  0  0
  2  3  1  0  0  0  0
  3 10  2  0  0  0  0
  3  4  1  0  0  0  0
  4  5  1  0  0  0  0
  4  7  2  0  0  0  0
  5 11  2  0  0  0  0
  6  5  1  0  0  0  0
  7  8  1  0  0  0  0
  7 34  1  0  0  0  0
  8 35  1  0  0  0  0
  9  8  2  0  0  0  0
 10  9  1  0  0  0  0
 12  9  1  0  0  0  0
 12 13  1  0  0  0  0
 13 36  1  0  0  0  0
 13 37  1  0  0  0  0
 14 13  1  0  0  0  0
 14 38  1  0  0  0  0
 15 14  1  0  0  0  0
 16 15  1  0  0  0  0
 16 17  1  0  0  0  0
 17 12  1  0  0  0  0
 17 44  1  0  0  0  0
 18  2  1  0  0  0  0
 19 18  1  0  0  0  0
 19 29  1  0  0  0  0
 20 19  2  0  0  0  0
 21 20  1  0  0  0  0
 21 22  2  0  0  0  0
 22 23  1  0  0  0  0
 23 18  2  0  0  0  0
 23 30  1  0  0  0  0
 24 21  1  0  0  0  0
 25  6  1  0  0  0  0
 25 32  1  0  0  0  0
 26 25  2  0  0  0  0
 27  1  1  0  0  0  0
 28 20  1  0  0  0  0
 31 22  1  0  0  0  0
 32 33  1  0  0  0  0
 39 14  1  0  0  0  0
 40 15  1  0  0  0  0
 41 16  1  0  0  0  0
 42 16  1  0  0  0  0
 43 17  1  0  0  0  0
 45 10  1  0  0  0  0
M  END