AMF3
  Mrv1674 09121610113D          

 44 46  0  0  0  0            999 V2000
    0.0000    0.0000    0.0000 S   0  0  0  0  0  0  0  0  0  0  0  0
    1.7842    0.0000    0.0000 C   0  0  1  0  0  0  0  0  0  0  0  0
    2.2804    0.0000    1.3922 N   0  0  2  0  0  0  0  0  0  0  0  0
    2.8602   -1.3217    1.2748 C   0  0  0  0  0  0  0  0  0  0  0  0
    3.4026   -2.0380    2.0965 O   0  0  0  0  0  0  0  0  0  0  0  0
    2.5443   -1.3627   -0.2613 C   0  0  1  0  0  0  0  0  0  0  0  0
    1.7903   -2.4640   -0.7244 N   0  0  0  0  0  0  0  0  0  0  0  0
    2.2377   -3.2771   -1.7506 C   0  0  0  0  0  0  0  0  0  0  0  0
    3.3564   -3.1299   -2.2738 O   0  0  0  0  0  0  0  0  0  0  0  0
    1.3096   -4.4284   -2.2162 C   0  0  2  0  0  0  0  0  0  0  0  0
    0.0065   -3.9150   -2.5951 N   0  0  2  0  0  0  0  0  0  0  0  0
    1.2598   -5.4765   -1.1358 C   0  0  0  0  0  0  0  0  0  0  0  0
    0.3608   -5.3873   -0.0692 C   0  0  0  0  0  0  0  0  0  0  0  0
    0.3336   -6.3711    0.9164 C   0  0  0  0  0  0  0  0  0  0  0  0
    1.2220   -7.4522    0.8326 C   0  0  0  0  0  0  0  0  0  0  0  0
    1.2528   -8.4638    1.7622 O   0  0  0  0  0  0  0  0  0  0  0  0
    2.1445   -6.5621   -1.2070 C   0  0  0  0  0  0  0  0  0  0  0  0
    2.1350   -7.5514   -0.2319 C   0  0  0  0  0  0  0  0  0  0  0  0
   -0.1630    0.1349    1.8078 C   0  0  1  0  0  0  0  0  0  0  0  0
    1.2763    0.3048    2.3863 C   0  0  2  0  0  0  0  0  0  0  0  0
    1.4525    1.6968    2.9795 C   0  0  0  0  0  0  0  0  0  0  0  0
    1.7094    2.7109    2.1142 O   0  0  0  0  0  0  0  0  0  0  0  0
    1.3751    1.9811    4.1777 O   0  0  0  0  0  0  0  0  0  0  0  0
   -1.0591    1.3113    2.1071 C   0  0  0  0  0  0  0  0  0  0  0  0
   -0.7779   -1.1447    2.3283 C   0  0  0  0  0  0  0  0  0  0  0  0
   -0.6862   -4.6346   -2.5551 H   0  0  0  0  0  0  0  0  0  0  0  0
    0.0395   -3.5188   -3.5122 H   0  0  0  0  0  0  0  0  0  0  0  0
    0.6073   -8.2560    2.4538 H   0  0  0  0  0  0  0  0  0  0  0  0
   -0.3741   -6.2983    1.7539 H   0  0  0  0  0  0  0  0  0  0  0  0
   -0.3342   -4.5362    0.0043 H   0  0  0  0  0  0  0  0  0  0  0  0
    2.8272   -8.4041   -0.2760 H   0  0  0  0  0  0  0  0  0  0  0  0
    2.8630   -6.6308   -2.0395 H   0  0  0  0  0  0  0  0  0  0  0  0
    1.8519   -4.8761   -3.1109 H   0  0  0  0  0  0  0  0  0  0  0  0
    0.8348   -2.5186   -0.4415 H   0  0  0  0  0  0  0  0  0  0  0  0
    3.4779   -1.2266   -0.8746 H   0  0  0  0  0  0  0  0  0  0  0  0
    2.1751    0.8503   -0.6032 H   0  0  0  0  0  0  0  0  0  0  0  0
    1.8371    3.5357    2.6144 H   0  0  0  0  0  0  0  0  0  0  0  0
    1.4108   -0.4028    3.2650 H   0  0  0  0  0  0  0  0  0  0  0  0
   -2.0834    1.1266    1.7003 H   0  0  0  0  0  0  0  0  0  0  0  0
   -1.1389    1.4644    3.2129 H   0  0  0  0  0  0  0  0  0  0  0  0
   -0.6562    2.2454    1.6419 H   0  0  0  0  0  0  0  0  0  0  0  0
   -0.9429   -1.0732    3.4322 H   0  0  0  0  0  0  0  0  0  0  0  0
   -1.7645   -1.3248    1.8354 H   0  0  0  0  0  0  0  0  0  0  0  0
   -0.1127   -2.0182    2.1223 H   0  0  0  0  0  0  0  0  0  0  0  0
  1  2  1  0  0  0  0
  1 19  1  0  0  0  0
  2 36  1  6  0  0  0
  2  3  1  0  0  0  0
  3 20  1  0  0  0  0
  4  3  1  0  0  0  0
  4  5  2  0  0  0  0
  6  2  1  0  0  0  0
  6  4  1  0  0  0  0
  6 35  1  6  0  0  0
  7  6  1  0  0  0  0
  7 34  1  0  0  0  0
  8  7  1  0  0  0  0
  9  8  2  0  0  0  0
 10  8  1  0  0  0  0
 10 33  1  6  0  0  0
 10 12  1  0  0  0  0
 11 10  1  0  0  0  0
 11 26  1  0  0  0  0
 12 13  1  0  0  0  0
 13 30  1  0  0  0  0
 13 14  2  0  0  0  0
 14 29  1  0  0  0  0
 15 14  1  0  0  0  0
 15 16  1  0  0  0  0
 16 28  1  0  0  0  0
 17 12  2  0  0  0  0
 17 18  1  0  0  0  0
 18 15  2  0  0  0  0
 19 24  1  0  0  0  0
 19 25  1  0  0  0  0
 19 20  1  0  0  0  0
 20 21  1  0  0  0  0
 20 38  1  1  0  0  0
 21 23  2  0  0  0  0
 22 21  1  0  0  0  0
 22 37  1  0  0  0  0
 24 40  1  0  0  0  0
 25 42  1  0  0  0  0
 27 11  1  0  0  0  0
 31 18  1  0  0  0  0
 32 17  1  0  0  0  0
 39 24  1  0  0  0  0
 41 24  1  0  0  0  0
 43 25  1  0  0  0  0
 44 25  1  0  0  0  0
M  END