AMF38
  Mrv1674 09121610113D          

 38 38  0  0  0  0            999 V2000
    0.0000    0.0000    0.0000 C   0  0  1  0  0  0  0  0  0  0  0  0
    1.5476    0.0000    0.0000 C   0  0  2  0  0  0  0  0  0  0  0  0
    2.0890    0.0000    1.3420 N   0  0  1  0  0  0  0  0  0  0  0  0
    3.5434   -0.2048    1.4312 C   0  0  2  0  0  0  0  0  0  0  0  0
    4.3572    0.7328    0.5228 C   0  0  0  0  0  0  0  0  0  0  0  0
    3.9220   -1.6499    1.0697 C   0  0  0  0  0  0  0  0  0  0  0  0
    4.0062    0.0447    2.8792 C   0  0  0  0  0  0  0  0  0  0  0  0
   -0.5027    0.2621   -1.3886 C   0  0  0  0  0  0  0  0  0  0  0  0
   -1.0080   -0.7654   -2.1841 C   0  0  0  0  0  0  0  0  0  0  0  0
   -1.4812   -0.5093   -3.4765 C   0  0  0  0  0  0  0  0  0  0  0  0
   -1.4202    0.8044   -3.9721 C   0  0  0  0  0  0  0  0  0  0  0  0
   -1.8563    1.1801   -5.2174 O   0  0  0  0  0  0  0  0  0  0  0  0
   -2.0732   -1.6333   -4.2601 C   0  0  1  0  0  0  0  0  0  0  0  0
   -1.5229   -1.6250   -5.5729 O   0  0  0  0  0  0  0  0  0  0  0  0
   -0.4644    1.5713   -1.8896 C   0  0  0  0  0  0  0  0  0  0  0  0
   -0.9129    1.8478   -3.1722 C   0  0  0  0  0  0  0  0  0  0  0  0
   -0.5096   -1.2539    0.4351 O   0  0  0  0  0  0  0  0  0  0  0  0
   -0.3886    0.8048    0.6907 H   0  0  0  0  0  0  0  0  0  0  0  0
    5.4467    0.5736    0.7033 H   0  0  0  0  0  0  0  0  0  0  0  0
    4.1442    0.5234   -0.5526 H   0  0  0  0  0  0  0  0  0  0  0  0
    4.1144    1.8006    0.7368 H   0  0  0  0  0  0  0  0  0  0  0  0
    5.0114   -1.7987    1.2620 H   0  0  0  0  0  0  0  0  0  0  0  0
    3.3451   -2.3756    1.6904 H   0  0  0  0  0  0  0  0  0  0  0  0
    3.7230   -1.8590   -0.0079 H   0  0  0  0  0  0  0  0  0  0  0  0
    5.1012   -0.1561    2.9532 H   0  0  0  0  0  0  0  0  0  0  0  0
    3.4699   -0.6319    3.5860 H   0  0  0  0  0  0  0  0  0  0  0  0
    3.8192    1.1033    3.1790 H   0  0  0  0  0  0  0  0  0  0  0  0
    1.8502    0.8572    1.8068 H   0  0  0  0  0  0  0  0  0  0  0  0
    1.8887    0.8888   -0.6072 H   0  0  0  0  0  0  0  0  0  0  0  0
    1.8936   -0.9317   -0.5285 H   0  0  0  0  0  0  0  0  0  0  0  0
   -2.0372    0.3850   -5.7422 H   0  0  0  0  0  0  0  0  0  0  0  0
   -1.8538   -2.4146   -6.0154 H   0  0  0  0  0  0  0  0  0  0  0  0
   -1.8562   -2.6184   -3.7642 H   0  0  0  0  0  0  0  0  0  0  0  0
   -3.1897   -1.5007   -4.3307 H   0  0  0  0  0  0  0  0  0  0  0  0
   -1.0428   -1.7905   -1.7789 H   0  0  0  0  0  0  0  0  0  0  0  0
   -0.8838    2.8678   -3.5806 H   0  0  0  0  0  0  0  0  0  0  0  0
   -0.0731    2.3861   -1.2615 H   0  0  0  0  0  0  0  0  0  0  0  0
   -0.0655   -1.4631    1.2662 H   0  0  0  0  0  0  0  0  0  0  0  0
  1  2  1  0  0  0  0
  1 17  1  0  0  0  0
  1 18  1  1  0  0  0
  2  3  1  0  0  0  0
  3  4  1  0  0  0  0
  3 28  1  0  0  0  0
  4  7  1  0  0  0  0
  5  4  1  0  0  0  0
  5 19  1  0  0  0  0
  5 21  1  0  0  0  0
  6  4  1  0  0  0  0
  6 22  1  0  0  0  0
  6 23  1  0  0  0  0
  7 25  1  0  0  0  0
  7 27  1  0  0  0  0
  7 26  1  0  0  0  0
  8  1  1  0  0  0  0
  9  8  2  0  0  0  0
  9 35  1  0  0  0  0
 10  9  1  0  0  0  0
 11 10  2  0  0  0  0
 11 16  1  0  0  0  0
 12 11  1  0  0  0  0
 13 10  1  0  0  0  0
 13 33  1  0  0  0  0
 14 13  1  0  0  0  0
 15  8  1  0  0  0  0
 15 37  1  0  0  0  0
 16 15  2  0  0  0  0
 17 38  1  0  0  0  0
 20  5  1  0  0  0  0
 24  6  1  0  0  0  0
 29  2  1  0  0  0  0
 30  2  1  0  0  0  0
 31 12  1  0  0  0  0
 32 14  1  0  0  0  0
 34 13  1  0  0  0  0
 36 16  1  0  0  0  0
M  END