AMF34
  Mrv1674 09121610113D          

 36 38  0  0  0  0            999 V2000
    0.0000    0.0000    0.0000 C   0  0  0  0  0  0  0  0  0  0  0  0
    1.3944    0.0000    0.0000 C   0  0  0  0  0  0  0  0  0  0  0  0
    2.0868    0.0000    1.2090 C   0  0  0  0  0  0  0  0  0  0  0  0
    1.4067    0.0044    2.4315 C   0  0  0  0  0  0  0  0  0  0  0  0
    2.3147    0.0477    3.8588 S   0  0  2  0  0  0  0  0  0  0  0  0
    2.5646    1.3777    4.2168 O   0  0  0  0  0  0  0  0  0  0  0  0
    3.4593   -0.7575    3.7093 O   0  0  0  0  0  0  0  0  0  0  0  0
   -0.6994   -0.0095    1.2062 C   0  0  0  0  0  0  0  0  0  0  0  0
   -0.0006   -0.0125    2.4183 C   0  0  0  0  0  0  0  0  0  0  0  0
   -0.7307   -0.0509    3.6919 C   0  0  0  0  0  0  0  0  0  0  0  0
   -0.0996   -0.3167    4.8846 C   0  0  0  0  0  0  0  0  0  0  0  0
   -0.8847   -0.3008    6.1682 C   0  0  0  0  0  0  0  0  0  0  0  0
   -0.2485    0.2100    7.2829 N   0  0  0  0  0  0  0  0  0  0  0  0
   -0.8301    0.3678    8.5633 C   0  0  0  0  0  0  0  0  0  0  0  0
   -1.9872   -0.3541    8.9645 C   0  0  0  0  0  0  0  0  0  0  0  0
   -2.4811   -0.1631   10.2547 C   0  0  0  0  0  0  0  0  0  0  0  0
   -1.8368    0.7178   11.1196 C   0  0  0  0  0  0  0  0  0  0  0  0
   -0.1890    1.2381    9.4141 N   0  0  0  0  0  0  0  0  0  0  0  0
   -0.6945    1.3883   10.6445 C   0  0  0  0  0  0  0  0  0  0  0  0
   -2.0590   -0.7289    6.1806 O   0  0  0  0  0  0  0  0  0  0  0  0
    1.2650   -0.6503    4.9188 N   0  0  0  0  0  0  0  0  0  0  0  0
    1.6671   -1.7434    5.7612 C   0  0  0  0  0  0  0  0  0  0  0  0
   -2.0464    0.2883    3.5585 O   0  0  0  0  0  0  0  0  0  0  0  0
   -0.5527    0.0053   -0.9525 H   0  0  0  0  0  0  0  0  0  0  0  0
    1.9488    0.0007   -0.9507 H   0  0  0  0  0  0  0  0  0  0  0  0
    3.1917   -0.0125    1.2079 H   0  0  0  0  0  0  0  0  0  0  0  0
   -1.8016   -0.0119    1.2147 H   0  0  0  0  0  0  0  0  0  0  0  0
   -3.3775   -0.7123   10.5804 H   0  0  0  0  0  0  0  0  0  0  0  0
   -2.1998    0.8903   12.1401 H   0  0  0  0  0  0  0  0  0  0  0  0
   -2.4935   -1.0473    8.2762 H   0  0  0  0  0  0  0  0  0  0  0  0
   -0.1443    2.0980   11.2902 H   0  0  0  0  0  0  0  0  0  0  0  0
    0.6402    0.6503    7.1471 H   0  0  0  0  0  0  0  0  0  0  0  0
    2.5005   -2.3128    5.2629 H   0  0  0  0  0  0  0  0  0  0  0  0
    2.0359   -1.3558    6.7500 H   0  0  0  0  0  0  0  0  0  0  0  0
    0.8136   -2.4472    5.9481 H   0  0  0  0  0  0  0  0  0  0  0  0
   -2.5354    0.0633    4.3699 H   0  0  0  0  0  0  0  0  0  0  0  0
  1  2  2  0  0  0  0
  1  8  1  0  0  0  0
  2  3  1  0  0  0  0
  3  4  2  0  0  0  0
  4  5  1  0  0  0  0
  5  6  2  0  0  0  0
  5 21  1  0  0  0  0
  7  5  2  0  0  0  0
  8 27  1  0  0  0  0
  8  9  2  0  0  0  0
  9  4  1  0  0  0  0
  9 10  1  0  0  0  0
 10 11  2  0  0  0  0
 11 21  1  0  0  0  0
 11 12  1  0  0  0  0
 12 20  2  0  0  0  0
 12 13  1  0  0  0  0
 13 14  1  0  0  0  0
 14 15  2  0  0  0  0
 14 18  1  0  0  0  0
 15 16  1  0  0  0  0
 16 28  1  0  0  0  0
 16 17  2  0  0  0  0
 17 29  1  0  0  0  0
 18 19  2  0  0  0  0
 19 17  1  0  0  0  0
 19 31  1  0  0  0  0
 21 22  1  0  0  0  0
 22 35  1  0  0  0  0
 22 34  1  0  0  0  0
 23 10  1  0  0  0  0
 23 36  1  0  0  0  0
 24  1  1  0  0  0  0
 25  2  1  0  0  0  0
 26  3  1  0  0  0  0
 30 15  1  0  0  0  0
 32 13  1  0  0  0  0
 33 22  1  0  0  0  0
M  END