AMF37
  Mrv1674 09121610113D          

 62 64  0  0  0  0            999 V2000
    0.0000    0.0000    0.0000 O   0  0  0  0  0  0  0  0  0  0  0  0
    1.2435    0.0000    0.0000 C   0  0  0  0  0  0  0  0  0  0  0  0
    1.9654    0.0000    1.1894 N   0  0  0  0  0  0  0  0  0  0  0  0
    3.3095   -0.5606    1.2888 C   0  0  2  0  0  0  0  0  0  0  0  0
    3.4282   -1.2395    2.6897 C   0  0  1  0  0  0  0  0  0  0  0  0
    4.6002   -0.5835    3.4061 C   0  0  1  0  0  0  0  0  0  0  0  0
    4.4496    0.4729    1.2013 C   0  0  1  0  0  0  0  0  0  0  0  0
    5.3931    0.1829    2.3576 C   0  0  2  0  0  0  0  0  0  0  0  0
    1.2667   -0.0892    2.4651 C   0  0  1  0  0  0  0  0  0  0  0  0
    2.0810   -1.0380    3.3759 C   0  0  1  0  0  0  0  0  0  0  0  0
    1.0839    1.2569    3.1511 C   0  0  0  0  0  0  0  0  0  0  0  0
    0.6430    2.2677    2.3575 O   0  0  0  0  0  0  0  0  0  0  0  0
    1.2350    1.5201    4.3488 O   0  0  0  0  0  0  0  0  0  0  0  0
    2.0255    0.0735   -1.3341 C   0  0  1  0  0  0  0  0  0  0  0  0
    1.9780   -1.2443   -1.9485 N   0  0  2  0  0  0  0  0  0  0  0  0
    2.9065   -1.4584   -3.0392 C   0  0  1  0  0  0  0  0  0  0  0  0
    3.1156   -2.9604   -3.3133 C   0  0  2  0  0  0  0  0  0  0  0  0
    4.2898   -3.1960   -4.2448 C   0  0  1  0  0  0  0  0  0  0  0  0
    5.6041   -2.9240   -3.5998 C   0  0  0  0  0  0  0  0  0  0  0  0
    6.2219   -3.9032   -2.8132 C   0  0  0  0  0  0  0  0  0  0  0  0
    7.4593   -3.6525   -2.2226 C   0  0  0  0  0  0  0  0  0  0  0  0
    8.0899   -2.4231   -2.4132 C   0  0  0  0  0  0  0  0  0  0  0  0
    6.2407   -1.6908   -3.7865 C   0  0  0  0  0  0  0  0  0  0  0  0
    7.4786   -1.4433   -3.1954 C   0  0  0  0  0  0  0  0  0  0  0  0
    2.4578   -0.8146   -4.3523 C   0  0  0  0  0  0  0  0  0  0  0  0
    3.4390   -0.0728   -4.9430 O   0  0  0  0  0  0  0  0  0  0  0  0
    3.1061    0.5661   -6.1898 C   0  0  2  0  0  0  0  0  0  0  0  0
    4.3535    1.2845   -6.6421 C   0  0  0  0  0  0  0  0  0  0  0  0
    1.3580   -0.8908   -4.9017 O   0  0  0  0  0  0  0  0  0  0  0  0
    1.4208    1.2225   -2.1399 C   0  0  0  0  0  0  0  0  0  0  0  0
    4.2374    0.1184    4.2004 H   0  0  0  0  0  0  0  0  0  0  0  0
    5.2388   -1.3532    3.9062 H   0  0  0  0  0  0  0  0  0  0  0  0
    3.6288   -2.3329    2.5548 H   0  0  0  0  0  0  0  0  0  0  0  0
    6.2595   -0.4319    2.0035 H   0  0  0  0  0  0  0  0  0  0  0  0
    5.8063    1.1305    2.7833 H   0  0  0  0  0  0  0  0  0  0  0  0
    4.9777    0.3753    0.2204 H   0  0  0  0  0  0  0  0  0  0  0  0
    4.0615    1.5202    1.2719 H   0  0  0  0  0  0  0  0  0  0  0  0
    3.4510   -1.3325    0.4797 H   0  0  0  0  0  0  0  0  0  0  0  0
    1.5373   -2.0113    3.4659 H   0  0  0  0  0  0  0  0  0  0  0  0
    2.1920   -0.6078    4.4027 H   0  0  0  0  0  0  0  0  0  0  0  0
    0.5178    3.0684    2.8947 H   0  0  0  0  0  0  0  0  0  0  0  0
    0.2169   -0.4837    2.3018 H   0  0  0  0  0  0  0  0  0  0  0  0
    9.0676   -2.2276   -1.9495 H   0  0  0  0  0  0  0  0  0  0  0  0
    7.9396   -4.4275   -1.6073 H   0  0  0  0  0  0  0  0  0  0  0  0
    5.7275   -4.8745   -2.6636 H   0  0  0  0  0  0  0  0  0  0  0  0
    7.9744   -0.4736   -3.3489 H   0  0  0  0  0  0  0  0  0  0  0  0
    5.7552   -0.9162   -4.4037 H   0  0  0  0  0  0  0  0  0  0  0  0
    4.2595   -4.2664   -4.5864 H   0  0  0  0  0  0  0  0  0  0  0  0
    4.1767   -2.5496   -5.1579 H   0  0  0  0  0  0  0  0  0  0  0  0
    2.1853   -3.3864   -3.7727 H   0  0  0  0  0  0  0  0  0  0  0  0
    3.2964   -3.4901   -2.3413 H   0  0  0  0  0  0  0  0  0  0  0  0
    4.1613    1.7575   -7.6346 H   0  0  0  0  0  0  0  0  0  0  0  0
    4.6391    2.0761   -5.9091 H   0  0  0  0  0  0  0  0  0  0  0  0
    5.2055    0.5690   -6.7355 H   0  0  0  0  0  0  0  0  0  0  0  0
    2.2534    1.2720   -6.0111 H   0  0  0  0  0  0  0  0  0  0  0  0
    2.7844   -0.2203   -6.9215 H   0  0  0  0  0  0  0  0  0  0  0  0
    3.9095   -1.0105   -2.7607 H   0  0  0  0  0  0  0  0  0  0  0  0
    1.0397   -1.4853   -2.2138 H   0  0  0  0  0  0  0  0  0  0  0  0
    1.5659    2.1806   -1.5867 H   0  0  0  0  0  0  0  0  0  0  0  0
    1.9194    1.2995   -3.1371 H   0  0  0  0  0  0  0  0  0  0  0  0
    0.3251    1.0634   -2.2922 H   0  0  0  0  0  0  0  0  0  0  0  0
    3.1112    0.3218   -1.1331 H   0  0  0  0  0  0  0  0  0  0  0  0
  1  2  2  0  0  0  0
  2  3  1  0  0  0  0
  3  4  1  0  0  0  0
  3  9  1  0  0  0  0
  4 38  1  6  0  0  0
  4  5  1  0  0  0  0
  5 33  1  6  0  0  0
  5 10  1  0  0  0  0
  5  6  1  0  0  0  0
  6 32  1  0  0  0  0
  6 31  1  0  0  0  0
  7  4  1  0  0  0  0
  7 37  1  0  0  0  0
  7  8  1  0  0  0  0
  8  6  1  0  0  0  0
  8 35  1  0  0  0  0
  9 42  1  6  0  0  0
  9 11  1  0  0  0  0
  9 10  1  0  0  0  0
 10 39  1  0  0  0  0
 10 40  1  0  0  0  0
 11 13  2  0  0  0  0
 12 11  1  0  0  0  0
 12 41  1  0  0  0  0
 14  2  1  0  0  0  0
 14 62  1  1  0  0  0
 15 14  1  0  0  0  0
 16 15  1  0  0  0  0
 16 57  1  1  0  0  0
 17 16  1  0  0  0  0
 17 51  1  0  0  0  0
 18 17  1  0  0  0  0
 18 19  1  0  0  0  0
 19 20  1  0  0  0  0
 20 45  1  0  0  0  0
 20 21  2  0  0  0  0
 21 44  1  0  0  0  0
 22 21  1  0  0  0  0
 22 43  1  0  0  0  0
 23 19  2  0  0  0  0
 23 24  1  0  0  0  0
 24 22  2  0  0  0  0
 25 16  1  0  0  0  0
 26 25  1  0  0  0  0
 27 26  1  0  0  0  0
 27 55  1  0  0  0  0
 28 27  1  0  0  0  0
 28 53  1  0  0  0  0
 29 25  2  0  0  0  0
 30 14  1  0  0  0  0
 30 59  1  0  0  0  0
 34  8  1  0  0  0  0
 36  7  1  0  0  0  0
 46 24  1  0  0  0  0
 47 23  1  0  0  0  0
 48 18  1  0  0  0  0
 49 18  1  0  0  0  0
 50 17  1  0  0  0  0
 52 28  1  0  0  0  0
 54 28  1  0  0  0  0
 56 27  1  0  0  0  0
 58 15  1  0  0  0  0
 60 30  1  0  0  0  0
 61 30  1  0  0  0  0
M  END