AMF36
  Mrv1674 09121610113D          

 46 48  0  0  0  0            999 V2000
    0.0000    0.0000    0.0000 C   0  0  0  0  0  0  0  0  0  0  0  0
    1.4555    0.0000    0.0000 C   0  0  0  0  0  0  0  0  0  0  0  0
    2.1448    0.0000    1.2265 C   0  0  0  0  0  0  0  0  0  0  0  0
    1.4038   -0.0010    2.3933 C   0  0  0  0  0  0  0  0  0  0  0  0
    1.9149   -0.0010   -1.3237 N   0  0  0  0  0  0  0  0  0  0  0  0
   -0.7289   -0.0022    1.2012 C   0  0  0  0  0  0  0  0  0  0  0  0
   -0.0076   -0.0022    2.3809 C   0  0  0  0  0  0  0  0  0  0  0  0
   -0.3776    0.0048   -1.3372 N   0  0  0  0  0  0  0  0  0  0  0  0
    0.8078   -0.0016   -2.0994 C   0  0  0  0  0  0  0  0  0  0  0  0
    0.8291   -0.0833   -3.8346 S   0  0  2  0  0  0  0  0  0  0  0  0
    1.4616    1.5224   -4.1912 C   0  0  2  0  0  0  0  0  0  0  0  0
    1.8055    1.5979   -5.6442 C   0  0  0  0  0  0  0  0  0  0  0  0
    0.9371    2.2641   -6.5388 C   0  0  0  0  0  0  0  0  0  0  0  0
    1.3410    2.3449   -7.8962 C   0  0  0  0  0  0  0  0  0  0  0  0
    2.5436    1.7599   -8.3046 C   0  0  0  0  0  0  0  0  0  0  0  0
    0.4831    3.0212   -8.7342 O   0  0  0  0  0  0  0  0  0  0  0  0
    0.8639    3.0670  -10.1172 C   0  0  2  0  0  0  0  0  0  0  0  0
   -0.2461    3.8280  -10.8186 C   0  0  2  0  0  0  0  0  0  0  0  0
    0.0676    3.9304  -12.3001 C   0  0  1  0  0  0  0  0  0  0  0  0
   -1.0058    4.6612  -12.8892 O   0  0  0  0  0  0  0  0  0  0  0  0
   -0.8447    4.8295  -14.2871 C   0  0  0  0  0  0  0  0  0  0  0  0
   -0.3511    2.8378   -6.0949 C   0  0  0  0  0  0  0  0  0  0  0  0
    2.9721    1.0135   -6.0368 N   0  0  0  0  0  0  0  0  0  0  0  0
    3.3127    1.1007   -7.3283 C   0  0  0  0  0  0  0  0  0  0  0  0
   -0.6074   -0.0302   -4.2014 O   0  0  0  0  0  0  0  0  0  0  0  0
    3.2441    0.0004    1.2421 H   0  0  0  0  0  0  0  0  0  0  0  0
    1.9209   -0.0013    3.3648 H   0  0  0  0  0  0  0  0  0  0  0  0
   -1.8267   -0.0034    1.1979 H   0  0  0  0  0  0  0  0  0  0  0  0
   -0.5441   -0.0033    3.3423 H   0  0  0  0  0  0  0  0  0  0  0  0
    2.8932    1.7993   -9.3426 H   0  0  0  0  0  0  0  0  0  0  0  0
   -0.3484    4.8530  -10.3773 H   0  0  0  0  0  0  0  0  0  0  0  0
   -1.2255    3.3041  -10.6700 H   0  0  0  0  0  0  0  0  0  0  0  0
    1.0338    4.4761  -12.4721 H   0  0  0  0  0  0  0  0  0  0  0  0
    0.1341    2.9130  -12.7704 H   0  0  0  0  0  0  0  0  0  0  0  0
   -1.7471    5.4104  -14.6026 H   0  0  0  0  0  0  0  0  0  0  0  0
    0.0891    5.4024  -14.5109 H   0  0  0  0  0  0  0  0  0  0  0  0
   -0.8156    3.8382  -14.8036 H   0  0  0  0  0  0  0  0  0  0  0  0
    0.9557    2.0224  -10.5152 H   0  0  0  0  0  0  0  0  0  0  0  0
    1.8465    3.5989  -10.2154 H   0  0  0  0  0  0  0  0  0  0  0  0
   -0.9344    2.0753   -5.5149 H   0  0  0  0  0  0  0  0  0  0  0  0
   -0.1746    3.7288   -5.4405 H   0  0  0  0  0  0  0  0  0  0  0  0
   -0.9699    3.1643   -6.9672 H   0  0  0  0  0  0  0  0  0  0  0  0
    4.2659    0.6136   -7.6046 H   0  0  0  0  0  0  0  0  0  0  0  0
    2.3818    1.6914   -3.5691 H   0  0  0  0  0  0  0  0  0  0  0  0
    0.7449    2.3396   -3.9277 H   0  0  0  0  0  0  0  0  0  0  0  0
   -1.2934   -0.0091   -1.7092 H   0  0  0  0  0  0  0  0  0  0  0  0
  1  6  1  0  0  0  0
  2  1  2  0  0  0  0
  2  3  1  0  0  0  0
  3 26  1  0  0  0  0
  3  4  2  0  0  0  0
  4 27  1  0  0  0  0
  5  2  1  0  0  0  0
  6  7  2  0  0  0  0
  7  4  1  0  0  0  0
  7 29  1  0  0  0  0
  8  1  1  0  0  0  0
  9  5  2  0  0  0  0
  9  8  1  0  0  0  0
 10  9  1  1  0  0  0
 11 10  1  0  0  0  0
 11 45  1  0  0  0  0
 11 44  1  0  0  0  0
 12 11  1  0  0  0  0
 13 12  2  0  0  0  0
 13 22  1  0  0  0  0
 14 13  1  0  0  0  0
 15 14  2  0  0  0  0
 15 24  1  0  0  0  0
 16 14  1  0  0  0  0
 17 16  1  0  0  0  0
 18 17  1  0  0  0  0
 18 32  1  0  0  0  0
 18 31  1  0  0  0  0
 19 18  1  0  0  0  0
 20 19  1  0  0  0  0
 21 20  1  0  0  0  0
 22 40  1  0  0  0  0
 22 41  1  0  0  0  0
 23 12  1  0  0  0  0
 24 23  2  0  0  0  0
 25 10  2  0  0  0  0
 28  6  1  0  0  0  0
 30 15  1  0  0  0  0
 33 19  1  0  0  0  0
 34 19  1  0  0  0  0
 35 21  1  0  0  0  0
 36 21  1  0  0  0  0
 37 21  1  0  0  0  0
 38 17  1  0  0  0  0
 39 17  1  0  0  0  0
 42 22  1  0  0  0  0
 43 24  1  0  0  0  0
 46  8  1  0  0  0  0
M  END