AMF41
  Mrv1674 09121610113D          

 24 24  0  0  0  0            999 V2000
    0.0000    0.0000    0.0000 S   0  0  2  0  0  0  0  0  0  0  0  0
    1.4022    0.0000    0.0000 O   0  0  0  0  0  0  0  0  0  0  0  0
   -0.6219    0.0000   -1.2728 O   0  0  0  0  0  0  0  0  0  0  0  0
   -0.5782    1.3626    0.7567 N   0  0  0  0  0  0  0  0  0  0  0  0
   -0.2508    1.8798    2.0088 C   0  0  0  0  0  0  0  0  0  0  0  0
    0.5110    1.2536    2.7662 O   0  0  0  0  0  0  0  0  0  0  0  0
   -0.8497    3.2053    2.4027 C   0  0  0  0  0  0  0  0  0  0  0  0
   -0.5904   -1.2516    0.9075 C   0  0  0  0  0  0  0  0  0  0  0  0
    0.0329   -1.6438    2.1038 C   0  0  0  0  0  0  0  0  0  0  0  0
   -0.4179   -2.7233    2.8401 C   0  0  0  0  0  0  0  0  0  0  0  0
   -1.5462   -3.4678    2.4013 C   0  0  0  0  0  0  0  0  0  0  0  0
   -2.0420   -4.5079    3.1512 N   0  0  0  0  0  0  0  0  0  0  0  0
   -1.7042   -1.9916    0.4769 C   0  0  0  0  0  0  0  0  0  0  0  0
   -2.1799   -3.0748    1.1895 C   0  0  0  0  0  0  0  0  0  0  0  0
   -1.9648    3.1452    2.4024 H   0  0  0  0  0  0  0  0  0  0  0  0
   -0.4986    3.4705    3.4298 H   0  0  0  0  0  0  0  0  0  0  0  0
   -0.5262    4.0027    1.6904 H   0  0  0  0  0  0  0  0  0  0  0  0
   -1.2337    1.9185    0.2505 H   0  0  0  0  0  0  0  0  0  0  0  0
   -2.7032   -5.1168    2.7365 H   0  0  0  0  0  0  0  0  0  0  0  0
   -1.4835   -4.8694    3.8845 H   0  0  0  0  0  0  0  0  0  0  0  0
    0.0978   -2.9992    3.7719 H   0  0  0  0  0  0  0  0  0  0  0  0
    0.9071   -1.0651    2.4628 H   0  0  0  0  0  0  0  0  0  0  0  0
   -3.0523   -3.6321    0.8179 H   0  0  0  0  0  0  0  0  0  0  0  0
   -2.2005   -1.7042   -0.4693 H   0  0  0  0  0  0  0  0  0  0  0  0
  1  2  2  0  0  0  0
  1  4  1  0  0  0  0
  1  8  1  0  0  0  0
  3  1  2  0  0  0  0
  4  5  1  0  0  0  0
  5  7  1  0  0  0  0
  5  6  2  0  0  0  0
  7 16  1  0  0  0  0
  8  9  1  0  0  0  0
  9 22  1  0  0  0  0
  9 10  2  0  0  0  0
 10 21  1  0  0  0  0
 11 10  1  0  0  0  0
 11 12  1  0  0  0  0
 12 20  1  0  0  0  0
 13  8  2  0  0  0  0
 13 14  1  0  0  0  0
 14 11  2  0  0  0  0
 15  7  1  0  0  0  0
 17  7  1  0  0  0  0
 18  4  1  0  0  0  0
 19 12  1  0  0  0  0
 23 14  1  0  0  0  0
 24 13  1  0  0  0  0
M  END