AMF48
  Mrv1674 09121610113D          

 27 28  0  0  0  0            999 V2000
    0.0000    0.0000    0.0000 C   0  0  0  0  0  0  0  0  0  0  0  0
    1.3817    0.0000    0.0000 C   0  0  0  0  0  0  0  0  0  0  0  0
    2.1218    0.0000    1.1929 C   0  0  0  0  0  0  0  0  0  0  0  0
    3.7917    0.0567    1.1709 S   0  0  1  0  0  0  0  0  0  0  0  0
    4.0830   -1.5882    1.1761 N   0  0  0  0  0  0  0  0  0  0  0  0
    5.3423   -2.1462    1.1629 C   0  0  0  0  0  0  0  0  0  0  0  0
    6.5080   -1.4209    1.1442 N   0  0  0  0  0  0  0  0  0  0  0  0
    7.5744   -2.1630    1.1345 N   0  0  0  0  0  0  0  0  0  0  0  0
    5.6453   -3.8631    1.1681 S   0  0  0  0  0  0  0  0  0  0  0  0
    7.3372   -3.4909    1.1444 C   0  0  0  0  0  0  0  0  0  0  0  0
    8.3686   -4.5435    1.1361 C   0  0  0  0  0  0  0  0  0  0  0  0
    4.2181    0.6183   -0.0365 O   0  0  0  0  0  0  0  0  0  0  0  0
    4.2493    0.6316    2.3605 O   0  0  0  0  0  0  0  0  0  0  0  0
   -0.7151   -0.0009    1.2298 C   0  0  0  0  0  0  0  0  0  0  0  0
    0.0317    0.0134    2.4405 C   0  0  0  0  0  0  0  0  0  0  0  0
    1.4129    0.0132    2.4045 C   0  0  0  0  0  0  0  0  0  0  0  0
   -2.0875   -0.0612    1.2480 N   0  0  0  0  0  0  0  0  0  0  0  0
   -0.5458    0.0030   -0.9551 H   0  0  0  0  0  0  0  0  0  0  0  0
    1.9250    0.0199   -0.9634 H   0  0  0  0  0  0  0  0  0  0  0  0
    8.2588   -5.1818    0.2236 H   0  0  0  0  0  0  0  0  0  0  0  0
    9.3989   -4.1043    1.1346 H   0  0  0  0  0  0  0  0  0  0  0  0
    8.2650   -5.1905    2.0432 H   0  0  0  0  0  0  0  0  0  0  0  0
    3.3449   -2.2528    1.1893 H   0  0  0  0  0  0  0  0  0  0  0  0
   -0.4891    0.0270    3.4094 H   0  0  0  0  0  0  0  0  0  0  0  0
    1.9811    0.0435    3.3532 H   0  0  0  0  0  0  0  0  0  0  0  0
   -2.5584    0.1196    2.1000 H   0  0  0  0  0  0  0  0  0  0  0  0
   -2.5805    0.1103    0.4065 H   0  0  0  0  0  0  0  0  0  0  0  0
  1  2  2  0  0  0  0
  1 14  1  0  0  0  0
  2  3  1  0  0  0  0
  3 16  2  0  0  0  0
  4  3  1  0  0  0  0
  4  5  1  0  0  0  0
  4 13  2  0  0  0  0
  5 23  1  0  0  0  0
  6  5  1  0  0  0  0
  6  9  1  0  0  0  0
  7  6  2  0  0  0  0
  8  7  1  0  0  0  0
  8 10  2  0  0  0  0
 10  9  1  0  0  0  0
 11 10  1  0  0  0  0
 11 22  1  0  0  0  0
 12  4  2  0  0  0  0
 14 17  1  0  0  0  0
 14 15  2  0  0  0  0
 15 24  1  0  0  0  0
 16 15  1  0  0  0  0
 16 25  1  0  0  0  0
 17 26  1  0  0  0  0
 18  1  1  0  0  0  0
 19  2  1  0  0  0  0
 20 11  1  0  0  0  0
 21 11  1  0  0  0  0
 27 17  1  0  0  0  0
M  END