AMF46
  Mrv1674 09121610113D          

 30 31  0  0  0  0            999 V2000
    0.0000    0.0000    0.0000 S   0  0  1  0  0  0  0  0  0  0  0  0
    1.4148    0.0000    0.0000 O   0  0  0  0  0  0  0  0  0  0  0  0
   -0.6121    0.0000   -1.2610 O   0  0  0  0  0  0  0  0  0  0  0  0
   -0.4033   -1.3540    0.8716 N   0  0  0  0  0  0  0  0  0  0  0  0
   -1.6908   -1.8450    1.1246 C   0  0  0  0  0  0  0  0  0  0  0  0
   -2.7471   -1.0747    0.6680 N   0  0  0  0  0  0  0  0  0  0  0  0
   -3.9920   -1.5585    0.8890 C   0  0  0  0  0  0  0  0  0  0  0  0
   -4.2091   -2.7795    1.5636 C   0  0  0  0  0  0  0  0  0  0  0  0
   -5.1663   -0.7761    0.3958 C   0  0  0  0  0  0  0  0  0  0  0  0
   -1.8172   -3.0520    1.8045 N   0  0  0  0  0  0  0  0  0  0  0  0
   -3.0725   -3.4803    2.0018 C   0  0  0  0  0  0  0  0  0  0  0  0
   -0.5501    1.2618    0.9210 C   0  0  0  0  0  0  0  0  0  0  0  0
    0.2022    1.7456    2.0043 C   0  0  0  0  0  0  0  0  0  0  0  0
   -0.2178    2.8201    2.7634 C   0  0  0  0  0  0  0  0  0  0  0  0
   -1.4409    3.4785    2.4538 C   0  0  0  0  0  0  0  0  0  0  0  0
   -1.8502    4.5758    3.1696 N   0  0  0  0  0  0  0  0  0  0  0  0
   -1.7555    1.9149    0.6186 C   0  0  0  0  0  0  0  0  0  0  0  0
   -2.2043    2.9947    1.3568 C   0  0  0  0  0  0  0  0  0  0  0  0
   -5.2187   -3.1654    1.7368 H   0  0  0  0  0  0  0  0  0  0  0  0
   -6.1166   -1.2622    0.7242 H   0  0  0  0  0  0  0  0  0  0  0  0
   -5.1400    0.2692    0.7922 H   0  0  0  0  0  0  0  0  0  0  0  0
   -5.1523   -0.7282   -0.7222 H   0  0  0  0  0  0  0  0  0  0  0  0
   -3.1662   -4.4417    2.5410 H   0  0  0  0  0  0  0  0  0  0  0  0
    0.3292   -1.9210    1.2471 H   0  0  0  0  0  0  0  0  0  0  0  0
   -2.7628    4.9294    3.0302 H   0  0  0  0  0  0  0  0  0  0  0  0
   -1.3807    4.8070    4.0085 H   0  0  0  0  0  0  0  0  0  0  0  0
    0.4011    3.1724    3.6015 H   0  0  0  0  0  0  0  0  0  0  0  0
    1.1656    1.2586    2.2427 H   0  0  0  0  0  0  0  0  0  0  0  0
   -3.1512    3.4838    1.0857 H   0  0  0  0  0  0  0  0  0  0  0  0
   -2.3547    1.5541   -0.2390 H   0  0  0  0  0  0  0  0  0  0  0  0
  1  2  2  0  0  0  0
  1  4  1  0  0  0  0
  1 12  1  0  0  0  0
  3  1  2  0  0  0  0
  4  5  1  0  0  0  0
  4 24  1  0  0  0  0
  5 10  1  0  0  0  0
  6  5  2  0  0  0  0
  6  7  1  0  0  0  0
  7  8  2  0  0  0  0
  8 19  1  0  0  0  0
  8 11  1  0  0  0  0
  9  7  1  0  0  0  0
  9 20  1  0  0  0  0
  9 21  1  0  0  0  0
 10 11  2  0  0  0  0
 11 23  1  0  0  0  0
 12 13  1  0  0  0  0
 13 28  1  0  0  0  0
 13 14  2  0  0  0  0
 14 27  1  0  0  0  0
 15 14  1  0  0  0  0
 15 16  1  0  0  0  0
 16 26  1  0  0  0  0
 17 12  2  0  0  0  0
 17 18  1  0  0  0  0
 18 15  2  0  0  0  0
 22  9  1  0  0  0  0
 25 16  1  0  0  0  0
 29 18  1  0  0  0  0
 30 17  1  0  0  0  0
M  END