AMF47
  Mrv1674 09121610113D          

 33 34  0  0  0  0            999 V2000
    0.0000    0.0000    0.0000 C   0  0  0  0  0  0  0  0  0  0  0  0
    1.3834    0.0000    0.0000 C   0  0  0  0  0  0  0  0  0  0  0  0
    2.1220    0.0000    1.1935 C   0  0  0  0  0  0  0  0  0  0  0  0
    3.7793    0.0543    1.1803 S   0  0  1  0  0  0  0  0  0  0  0  0
    4.2485   -1.5113    1.4539 N   0  0  0  0  0  0  0  0  0  0  0  0
    4.0765   -2.6079    0.5959 C   0  0  0  0  0  0  0  0  0  0  0  0
    3.3676   -2.3712   -0.5701 N   0  0  0  0  0  0  0  0  0  0  0  0
    3.2203   -3.4232   -1.4074 C   0  0  0  0  0  0  0  0  0  0  0  0
    3.7480   -4.6962   -1.1069 C   0  0  0  0  0  0  0  0  0  0  0  0
    2.4718   -3.2268   -2.6868 C   0  0  0  0  0  0  0  0  0  0  0  0
    4.6206   -3.8252    0.9738 N   0  0  0  0  0  0  0  0  0  0  0  0
    4.4451   -4.8511    0.1101 C   0  0  0  0  0  0  0  0  0  0  0  0
    5.0164   -6.1889    0.4569 C   0  0  0  0  0  0  0  0  0  0  0  0
    4.2493    0.5274   -0.0528 O   0  0  0  0  0  0  0  0  0  0  0  0
    4.2324    0.7565    2.3224 O   0  0  0  0  0  0  0  0  0  0  0  0
   -0.7154   -0.0107    1.2269 C   0  0  0  0  0  0  0  0  0  0  0  0
    0.0290   -0.0011    2.4387 C   0  0  0  0  0  0  0  0  0  0  0  0
    1.4101    0.0016    2.4041 C   0  0  0  0  0  0  0  0  0  0  0  0
   -2.0907   -0.0793    1.2441 N   0  0  0  0  0  0  0  0  0  0  0  0
   -0.5440    0.0037   -0.9558 H   0  0  0  0  0  0  0  0  0  0  0  0
    1.9289    0.0108   -0.9627 H   0  0  0  0  0  0  0  0  0  0  0  0
    3.6216   -5.5375   -1.7969 H   0  0  0  0  0  0  0  0  0  0  0  0
    2.8951   -2.3669   -3.2637 H   0  0  0  0  0  0  0  0  0  0  0  0
    2.5365   -4.1483   -3.3146 H   0  0  0  0  0  0  0  0  0  0  0  0
    1.3953   -3.0115   -2.4723 H   0  0  0  0  0  0  0  0  0  0  0  0
    4.6970   -6.9500   -0.2953 H   0  0  0  0  0  0  0  0  0  0  0  0
    6.1340   -6.1369    0.4657 H   0  0  0  0  0  0  0  0  0  0  0  0
    4.6727   -6.5159    1.4696 H   0  0  0  0  0  0  0  0  0  0  0  0
    4.7321   -1.7295    2.3008 H   0  0  0  0  0  0  0  0  0  0  0  0
   -0.4931    0.0019    3.4067 H   0  0  0  0  0  0  0  0  0  0  0  0
    1.9751    0.0257    3.3540 H   0  0  0  0  0  0  0  0  0  0  0  0
   -2.5781    0.1212    0.4054 H   0  0  0  0  0  0  0  0  0  0  0  0
   -2.5571    0.1185    2.0953 H   0  0  0  0  0  0  0  0  0  0  0  0
  1 16  1  0  0  0  0
  2  1  2  0  0  0  0
  2  3  1  0  0  0  0
  3 18  2  0  0  0  0
  4  3  1  0  0  0  0
  4  5  1  0  0  0  0
  4 15  2  0  0  0  0
  5 29  1  0  0  0  0
  6  5  1  0  0  0  0
  6 11  1  0  0  0  0
  7  6  2  0  0  0  0
  8  7  1  0  0  0  0
  8  9  2  0  0  0  0
  9 12  1  0  0  0  0
 10  8  1  0  0  0  0
 10 25  1  0  0  0  0
 12 11  2  0  0  0  0
 12 13  1  0  0  0  0
 13 27  1  0  0  0  0
 13 28  1  0  0  0  0
 14  4  2  0  0  0  0
 16 19  1  0  0  0  0
 16 17  2  0  0  0  0
 17 30  1  0  0  0  0
 18 17  1  0  0  0  0
 18 31  1  0  0  0  0
 19 33  1  0  0  0  0
 20  1  1  0  0  0  0
 21  2  1  0  0  0  0
 22  9  1  0  0  0  0
 23 10  1  0  0  0  0
 24 10  1  0  0  0  0
 26 13  1  0  0  0  0
 32 19  1  0  0  0  0
M  END