AMF44
  Mrv1674 09121610113D          

 35 36  0  0  0  0            999 V2000
    0.0000    0.0000    0.0000 S   0  0  1  0  0  0  0  0  0  0  0  0
    1.4055    0.0000    0.0000 O   0  0  0  0  0  0  0  0  0  0  0  0
   -0.6407    0.0000   -1.2579 O   0  0  0  0  0  0  0  0  0  0  0  0
   -0.5876   -1.3315    0.7891 N   0  0  0  0  0  0  0  0  0  0  0  0
   -0.1546   -1.9127    1.9840 C   0  0  0  0  0  0  0  0  0  0  0  0
   -0.9794   -2.8366    2.5880 N   0  0  0  0  0  0  0  0  0  0  0  0
   -0.5180   -3.3720    3.7571 C   0  0  0  0  0  0  0  0  0  0  0  0
   -1.2710   -4.3110    4.4359 O   0  0  0  0  0  0  0  0  0  0  0  0
   -2.5146   -4.7019    3.8490 C   0  0  0  0  0  0  0  0  0  0  0  0
    1.0974   -1.5578    2.5532 C   0  0  0  0  0  0  0  0  0  0  0  0
    1.4407   -2.1848    3.7769 C   0  0  0  0  0  0  0  0  0  0  0  0
    2.6524   -1.7965    4.2966 O   0  0  0  0  0  0  0  0  0  0  0  0
    3.0877   -2.4182    5.5090 C   0  0  0  0  0  0  0  0  0  0  0  0
    0.6596   -3.0969    4.4136 N   0  0  0  0  0  0  0  0  0  0  0  0
   -0.5584    1.2660    0.9112 C   0  0  0  0  0  0  0  0  0  0  0  0
   -1.8256    1.8235    0.6724 C   0  0  0  0  0  0  0  0  0  0  0  0
   -2.2982    2.9008    1.3956 C   0  0  0  0  0  0  0  0  0  0  0  0
   -1.4994    3.4790    2.4219 C   0  0  0  0  0  0  0  0  0  0  0  0
   -1.9723    4.5169    3.1824 N   0  0  0  0  0  0  0  0  0  0  0  0
    0.2304    1.8475    1.9177 C   0  0  0  0  0  0  0  0  0  0  0  0
   -0.2104    2.9253    2.6602 C   0  0  0  0  0  0  0  0  0  0  0  0
   -2.3518   -5.1654    2.8472 H   0  0  0  0  0  0  0  0  0  0  0  0
   -3.2080   -3.8308    3.7746 H   0  0  0  0  0  0  0  0  0  0  0  0
   -2.8987   -5.4575    4.5819 H   0  0  0  0  0  0  0  0  0  0  0  0
    4.0841   -1.9392    5.6873 H   0  0  0  0  0  0  0  0  0  0  0  0
    3.1927   -3.5203    5.3693 H   0  0  0  0  0  0  0  0  0  0  0  0
    2.3795   -2.1919    6.3412 H   0  0  0  0  0  0  0  0  0  0  0  0
    1.8051   -0.8674    2.0749 H   0  0  0  0  0  0  0  0  0  0  0  0
   -1.3985   -1.7715    0.3992 H   0  0  0  0  0  0  0  0  0  0  0  0
   -2.8070    4.9736    2.9127 H   0  0  0  0  0  0  0  0  0  0  0  0
   -1.3549    4.9893    3.7939 H   0  0  0  0  0  0  0  0  0  0  0  0
   -3.2954    3.3102    1.1770 H   0  0  0  0  0  0  0  0  0  0  0  0
   -2.4523    1.3951   -0.1318 H   0  0  0  0  0  0  0  0  0  0  0  0
    0.4380    3.3527    3.4394 H   0  0  0  0  0  0  0  0  0  0  0  0
    1.2384    1.4332    2.1094 H   0  0  0  0  0  0  0  0  0  0  0  0
  1  2  2  0  0  0  0
  1  4  1  0  0  0  0
  1 15  1  0  0  0  0
  3  1  2  0  0  0  0
  4  5  1  0  0  0  0
  5 10  2  0  0  0  0
  5  6  1  0  0  0  0
  6  7  2  0  0  0  0
  7 14  1  0  0  0  0
  7  8  1  0  0  0  0
  9  8  1  0  0  0  0
  9 24  1  0  0  0  0
 10 11  1  0  0  0  0
 11 12  1  0  0  0  0
 11 14  2  0  0  0  0
 12 13  1  0  0  0  0
 13 25  1  0  0  0  0
 13 27  1  0  0  0  0
 15 20  1  0  0  0  0
 16 15  2  0  0  0  0
 16 17  1  0  0  0  0
 17 18  2  0  0  0  0
 18 21  1  0  0  0  0
 18 19  1  0  0  0  0
 19 31  1  0  0  0  0
 20 35  1  0  0  0  0
 20 21  2  0  0  0  0
 21 34  1  0  0  0  0
 22  9  1  0  0  0  0
 23  9  1  0  0  0  0
 26 13  1  0  0  0  0
 28 10  1  0  0  0  0
 29  4  1  0  0  0  0
 30 19  1  0  0  0  0
 32 17  1  0  0  0  0
 33 16  1  0  0  0  0
M  END