AMF40
  Mrv1674 09121610113D          

 38 38  0  0  0  0            999 V2000
    0.0000    0.0000    0.0000 S   0  0  2  0  0  0  0  0  0  0  0  0
    1.4055    0.0000    0.0000 O   0  0  0  0  0  0  0  0  0  0  0  0
   -0.6365    0.0000   -1.2583 O   0  0  0  0  0  0  0  0  0  0  0  0
   -0.6159    1.2432    0.8521 N   0  0  0  0  0  0  0  0  0  0  0  0
   -0.2504    1.6777    2.1369 C   0  0  0  0  0  0  0  0  0  0  0  0
    1.0408    1.4345    2.6573 C   0  0  0  0  0  0  0  0  0  0  0  0
    1.3693    1.8668    3.9368 C   0  0  0  0  0  0  0  0  0  0  0  0
    0.4434    2.5600    4.7231 C   0  0  0  0  0  0  0  0  0  0  0  0
    0.8401    3.0115    6.0975 C   0  0  1  0  0  0  0  0  0  0  0  0
    1.7612    4.2491    5.9923 C   0  0  1  0  0  0  0  0  0  0  0  0
    2.3759    4.5827    7.2594 N   0  0  2  0  0  0  0  0  0  0  0  0
    3.1309    5.8358    7.2320 C   0  0  2  0  0  0  0  0  0  0  0  0
    4.2434    5.8581    8.2812 C   0  0  0  0  0  0  0  0  0  0  0  0
    2.2244    7.0479    7.4541 C   0  0  0  0  0  0  0  0  0  0  0  0
   -0.3407    3.3134    6.8288 O   0  0  0  0  0  0  0  0  0  0  0  0
   -1.1808    2.3796    2.9354 C   0  0  0  0  0  0  0  0  0  0  0  0
   -0.8308    2.8135    4.2093 C   0  0  0  0  0  0  0  0  0  0  0  0
   -0.5202   -1.3654    0.8665 C   0  0  0  0  0  0  0  0  0  0  0  0
    1.3801    2.1679    6.6199 H   0  0  0  0  0  0  0  0  0  0  0  0
    4.7870    6.8306    8.2148 H   0  0  0  0  0  0  0  0  0  0  0  0
    4.9741    5.0320    8.1086 H   0  0  0  0  0  0  0  0  0  0  0  0
    3.8228    5.7553    9.3100 H   0  0  0  0  0  0  0  0  0  0  0  0
    2.8403    7.9770    7.3960 H   0  0  0  0  0  0  0  0  0  0  0  0
    1.7384    7.0008    8.4574 H   0  0  0  0  0  0  0  0  0  0  0  0
    1.4271    7.0997    6.6750 H   0  0  0  0  0  0  0  0  0  0  0  0
    3.6252    5.9688    6.2175 H   0  0  0  0  0  0  0  0  0  0  0  0
    2.9642    3.8323    7.5707 H   0  0  0  0  0  0  0  0  0  0  0  0
    2.5209    4.0470    5.1813 H   0  0  0  0  0  0  0  0  0  0  0  0
    1.1335    5.1248    5.6639 H   0  0  0  0  0  0  0  0  0  0  0  0
   -0.0623    3.7447    7.6464 H   0  0  0  0  0  0  0  0  0  0  0  0
    2.3779    1.6626    4.3293 H   0  0  0  0  0  0  0  0  0  0  0  0
    1.8054    0.9147    2.0540 H   0  0  0  0  0  0  0  0  0  0  0  0
   -1.5658    3.3547    4.8280 H   0  0  0  0  0  0  0  0  0  0  0  0
   -2.1911    2.5943    2.5547 H   0  0  0  0  0  0  0  0  0  0  0  0
   -1.3749    1.7646    0.4684 H   0  0  0  0  0  0  0  0  0  0  0  0
   -1.6246   -1.5263    0.8133 H   0  0  0  0  0  0  0  0  0  0  0  0
   -0.2517   -1.3441    1.9511 H   0  0  0  0  0  0  0  0  0  0  0  0
   -0.0495   -2.2928    0.4507 H   0  0  0  0  0  0  0  0  0  0  0  0
  1  2  2  0  0  0  0
  1  4  1  0  0  0  0
  1 18  1  0  0  0  0
  3  1  2  0  0  0  0
  4  5  1  0  0  0  0
  5  6  2  0  0  0  0
  5 16  1  0  0  0  0
  6  7  1  0  0  0  0
  7 31  1  0  0  0  0
  7  8  2  0  0  0  0
  8  9  1  0  0  0  0
  9 19  1  1  0  0  0
  9 15  1  0  0  0  0
 10  9  1  0  0  0  0
 10 11  1  0  0  0  0
 11 27  1  0  0  0  0
 12 11  1  0  0  0  0
 12 14  1  0  0  0  0
 12 13  1  0  0  0  0
 13 22  1  0  0  0  0
 14 24  1  0  0  0  0
 15 30  1  0  0  0  0
 16 17  2  0  0  0  0
 17  8  1  0  0  0  0
 17 33  1  0  0  0  0
 18 37  1  0  0  0  0
 20 13  1  0  0  0  0
 21 13  1  0  0  0  0
 23 14  1  0  0  0  0
 25 14  1  0  0  0  0
 26 12  1  0  0  0  0
 28 10  1  0  0  0  0
 29 10  1  0  0  0  0
 32  6  1  0  0  0  0
 34 16  1  0  0  0  0
 35  4  1  0  0  0  0
 36 18  1  0  0  0  0
 38 18  1  0  0  0  0
M  END