AMF42
  Mrv1674 09121610113D          

 27 28  0  0  0  0            999 V2000
    0.0000    0.0000    0.0000 Cl  0  0  0  0  0  0  0  0  0  0  0  0
    1.6996    0.0000    0.0000 C   0  0  0  0  0  0  0  0  0  0  0  0
    2.3654    0.0000    1.2056 N   0  0  0  0  0  0  0  0  0  0  0  0
    3.6231   -0.0067    1.2639 N   0  0  0  0  0  0  0  0  0  0  0  0
    4.4158   -0.0115    0.1071 C   0  0  0  0  0  0  0  0  0  0  0  0
    5.8036   -0.0199    0.2516 N   0  0  0  0  0  0  0  0  0  0  0  0
    6.9611   -0.4755   -0.8392 S   0  0  1  0  0  0  0  0  0  0  0  0
    6.5951   -0.0604   -2.1348 O   0  0  0  0  0  0  0  0  0  0  0  0
    8.1820    0.0093   -0.3273 O   0  0  0  0  0  0  0  0  0  0  0  0
    6.9328   -2.1281   -0.7590 C   0  0  0  0  0  0  0  0  0  0  0  0
    6.2121   -2.8941   -1.6906 C   0  0  0  0  0  0  0  0  0  0  0  0
    6.2020   -4.2738   -1.6516 C   0  0  0  0  0  0  0  0  0  0  0  0
    6.9340   -4.9665   -0.6454 C   0  0  0  0  0  0  0  0  0  0  0  0
    6.9110   -6.3319   -0.5729 N   0  0  0  0  0  0  0  0  0  0  0  0
    7.6634   -2.8169    0.2242 C   0  0  0  0  0  0  0  0  0  0  0  0
    7.6761   -4.1954    0.2941 C   0  0  0  0  0  0  0  0  0  0  0  0
    2.3999    0.0076   -1.2221 C   0  0  0  0  0  0  0  0  0  0  0  0
    3.7917    0.0037   -1.1746 C   0  0  0  0  0  0  0  0  0  0  0  0
    7.4788   -6.8016    0.0852 H   0  0  0  0  0  0  0  0  0  0  0  0
    6.4517   -6.8565   -1.2727 H   0  0  0  0  0  0  0  0  0  0  0  0
    5.6266   -4.8376   -2.4005 H   0  0  0  0  0  0  0  0  0  0  0  0
    5.6487   -2.3703   -2.4854 H   0  0  0  0  0  0  0  0  0  0  0  0
    8.2616   -4.6974    1.0785 H   0  0  0  0  0  0  0  0  0  0  0  0
    8.2578   -2.2335    0.9516 H   0  0  0  0  0  0  0  0  0  0  0  0
    6.1096    0.2246    1.1732 H   0  0  0  0  0  0  0  0  0  0  0  0
    4.3824    0.0315   -2.1057 H   0  0  0  0  0  0  0  0  0  0  0  0
    1.8666    0.0243   -2.1834 H   0  0  0  0  0  0  0  0  0  0  0  0
  2  1  1  0  0  0  0
  2  3  1  0  0  0  0
  3  4  2  0  0  0  0
  5  4  1  0  0  0  0
  5  6  1  0  0  0  0
  6 25  1  0  0  0  0
  7  6  1  0  0  0  0
  7 10  1  0  0  0  0
  7  9  2  0  0  0  0
  8  7  2  0  0  0  0
 10 15  1  0  0  0  0
 11 10  2  0  0  0  0
 11 12  1  0  0  0  0
 12 13  2  0  0  0  0
 13 14  1  0  0  0  0
 13 16  1  0  0  0  0
 14 19  1  0  0  0  0
 15 16  2  0  0  0  0
 15 24  1  0  0  0  0
 16 23  1  0  0  0  0
 17  2  2  0  0  0  0
 17 18  1  0  0  0  0
 18  5  2  0  0  0  0
 20 14  1  0  0  0  0
 21 12  1  0  0  0  0
 22 11  1  0  0  0  0
 26 18  1  0  0  0  0
 27 17  1  0  0  0  0
M  END