AMF43
  Mrv1674 09121610113D          

 27 28  0  0  0  0            999 V2000
    0.0000    0.0000    0.0000 S   0  0  1  0  0  0  0  0  0  0  0  0
    1.4016    0.0000    0.0000 O   0  0  0  0  0  0  0  0  0  0  0  0
   -0.6183    0.0000   -1.2721 O   0  0  0  0  0  0  0  0  0  0  0  0
   -0.6052   -1.3553    0.7445 N   0  0  0  0  0  0  0  0  0  0  0  0
   -0.2819   -1.8315    2.0205 C   0  0  0  0  0  0  0  0  0  0  0  0
   -0.8329   -3.0379    2.4390 N   0  0  0  0  0  0  0  0  0  0  0  0
   -0.4781   -3.4533    3.6649 C   0  0  0  0  0  0  0  0  0  0  0  0
    0.3947   -2.7364    4.5036 C   0  0  0  0  0  0  0  0  0  0  0  0
    0.5780   -1.0489    2.7809 N   0  0  0  0  0  0  0  0  0  0  0  0
    0.8942   -1.5243    3.9960 C   0  0  0  0  0  0  0  0  0  0  0  0
   -0.5872    1.2616    0.8982 C   0  0  0  0  0  0  0  0  0  0  0  0
    0.2160    1.9187    1.8439 C   0  0  0  0  0  0  0  0  0  0  0  0
   -0.2500    3.0001    2.5693 C   0  0  0  0  0  0  0  0  0  0  0  0
   -1.5761    3.4725    2.3775 C   0  0  0  0  0  0  0  0  0  0  0  0
   -2.0762    4.5049    3.1371 N   0  0  0  0  0  0  0  0  0  0  0  0
   -1.8932    1.7404    0.7032 C   0  0  0  0  0  0  0  0  0  0  0  0
   -2.3899    2.8166    1.4126 C   0  0  0  0  0  0  0  0  0  0  0  0
    0.6705   -3.1029    5.4969 H   0  0  0  0  0  0  0  0  0  0  0  0
   -0.9210   -4.4151    3.9850 H   0  0  0  0  0  0  0  0  0  0  0  0
    1.5852   -0.8940    4.5862 H   0  0  0  0  0  0  0  0  0  0  0  0
   -1.2529   -1.9307    0.2460 H   0  0  0  0  0  0  0  0  0  0  0  0
   -2.9223    4.9323    2.8503 H   0  0  0  0  0  0  0  0  0  0  0  0
   -1.4387    5.0599    3.6531 H   0  0  0  0  0  0  0  0  0  0  0  0
    0.4102    3.4905    3.2996 H   0  0  0  0  0  0  0  0  0  0  0  0
    1.2523    1.5633    2.0001 H   0  0  0  0  0  0  0  0  0  0  0  0
   -3.4175    3.1635    1.2304 H   0  0  0  0  0  0  0  0  0  0  0  0
   -2.5320    1.2510   -0.0549 H   0  0  0  0  0  0  0  0  0  0  0  0
  1  2  2  0  0  0  0
  1  4  1  0  0  0  0
  1 11  1  0  0  0  0
  3  1  2  0  0  0  0
  4  5  1  0  0  0  0
  5  6  2  0  0  0  0
  5  9  1  0  0  0  0
  6  7  1  0  0  0  0
  7 19  1  0  0  0  0
  7  8  2  0  0  0  0
  8 18  1  0  0  0  0
  9 10  2  0  0  0  0
 10  8  1  0  0  0  0
 10 20  1  0  0  0  0
 11 12  1  0  0  0  0
 12 25  1  0  0  0  0
 12 13  2  0  0  0  0
 13 24  1  0  0  0  0
 14 13  1  0  0  0  0
 14 15  1  0  0  0  0
 15 23  1  0  0  0  0
 16 11  2  0  0  0  0
 16 17  1  0  0  0  0
 17 14  2  0  0  0  0
 21  4  1  0  0  0  0
 22 15  1  0  0  0  0
 26 17  1  0  0  0  0
 27 16  1  0  0  0  0
M  END