AMF54
  Mrv1674 09121610113D          

 28 29  0  0  0  0            999 V2000
    0.0000    0.0000    0.0000 S   0  0  1  0  0  0  0  0  0  0  0  0
    1.4088    0.0000    0.0000 O   0  0  0  0  0  0  0  0  0  0  0  0
   -0.6375    0.0000   -1.2605 O   0  0  0  0  0  0  0  0  0  0  0  0
   -0.5857   -1.3122    0.8000 N   0  0  0  0  0  0  0  0  0  0  0  0
   -0.1589   -1.8678    2.0181 C   0  0  0  0  0  0  0  0  0  0  0  0
   -1.0478   -2.6509    2.7147 N   0  0  0  0  0  0  0  0  0  0  0  0
   -0.6338   -3.1822    3.8732 C   0  0  0  0  0  0  0  0  0  0  0  0
    1.1618   -1.6293    2.5019 C   0  0  0  0  0  0  0  0  0  0  0  0
    1.5458   -2.1969    3.7137 C   0  0  0  0  0  0  0  0  0  0  0  0
    0.6442   -2.9870    4.4249 C   0  0  0  0  0  0  0  0  0  0  0  0
   -0.5472    1.2845    0.9000 C   0  0  0  0  0  0  0  0  0  0  0  0
    0.2592    1.8878    1.8781 C   0  0  0  0  0  0  0  0  0  0  0  0
   -0.1735    2.9736    2.6143 C   0  0  0  0  0  0  0  0  0  0  0  0
   -1.4682    3.5192    2.3896 C   0  0  0  0  0  0  0  0  0  0  0  0
   -1.8989    4.6210    3.0832 N   0  0  0  0  0  0  0  0  0  0  0  0
   -1.8223    1.8294    0.6788 C   0  0  0  0  0  0  0  0  0  0  0  0
   -2.2879    2.9141    1.3965 C   0  0  0  0  0  0  0  0  0  0  0  0
   -1.3843   -3.8072    4.3922 H   0  0  0  0  0  0  0  0  0  0  0  0
    0.9169   -3.4504    5.3805 H   0  0  0  0  0  0  0  0  0  0  0  0
    2.5624   -2.0246    4.0985 H   0  0  0  0  0  0  0  0  0  0  0  0
    1.8808   -1.0277    1.9225 H   0  0  0  0  0  0  0  0  0  0  0  0
   -1.4081   -1.7481    0.4323 H   0  0  0  0  0  0  0  0  0  0  0  0
   -1.3714    4.9451    3.8541 H   0  0  0  0  0  0  0  0  0  0  0  0
   -2.8433    4.9033    3.0064 H   0  0  0  0  0  0  0  0  0  0  0  0
    0.4894    3.4204    3.3697 H   0  0  0  0  0  0  0  0  0  0  0  0
    1.2737    1.4830    2.0530 H   0  0  0  0  0  0  0  0  0  0  0  0
   -3.2918    3.3140    1.1917 H   0  0  0  0  0  0  0  0  0  0  0  0
   -2.4637    1.3828   -0.1035 H   0  0  0  0  0  0  0  0  0  0  0  0
  1  2  2  0  0  0  0
  1  4  1  0  0  0  0
  1 11  1  0  0  0  0
  3  1  2  0  0  0  0
  4  5  1  0  0  0  0
  5  8  2  0  0  0  0
  5  6  1  0  0  0  0
  6  7  2  0  0  0  0
  7 18  1  0  0  0  0
  7 10  1  0  0  0  0
  8  9  1  0  0  0  0
  9 20  1  0  0  0  0
  9 10  2  0  0  0  0
 10 19  1  0  0  0  0
 11 12  1  0  0  0  0
 12 26  1  0  0  0  0
 12 13  2  0  0  0  0
 13 25  1  0  0  0  0
 14 13  1  0  0  0  0
 14 15  1  0  0  0  0
 15 23  1  0  0  0  0
 16 11  2  0  0  0  0
 16 17  1  0  0  0  0
 17 14  2  0  0  0  0
 21  8  1  0  0  0  0
 22  4  1  0  0  0  0
 24 15  1  0  0  0  0
 27 17  1  0  0  0  0
 28 16  1  0  0  0  0
M  END