AMF51
  Mrv1674 09121610113D          

 31 32  0  0  0  0            999 V2000
    0.0000    0.0000    0.0000 S   0  0  1  0  0  0  0  0  0  0  0  0
    1.4114    0.0000    0.0000 O   0  0  0  0  0  0  0  0  0  0  0  0
   -0.6391    0.0000   -1.2525 O   0  0  0  0  0  0  0  0  0  0  0  0
   -0.4407   -1.3288    0.8814 N   0  0  0  0  0  0  0  0  0  0  0  0
   -1.6998   -1.9166    1.0273 C   0  0  0  0  0  0  0  0  0  0  0  0
   -1.8791   -2.8459    2.0352 N   0  0  0  0  0  0  0  0  0  0  0  0
   -3.1134   -3.3802    2.1396 C   0  0  0  0  0  0  0  0  0  0  0  0
   -2.7715   -1.5700    0.1590 C   0  0  0  0  0  0  0  0  0  0  0  0
   -4.0163   -2.2057    0.3951 C   0  0  0  0  0  0  0  0  0  0  0  0
   -5.0241   -1.8265   -0.4599 O   0  0  0  0  0  0  0  0  0  0  0  0
   -6.2958   -2.4609   -0.3048 C   0  0  0  0  0  0  0  0  0  0  0  0
   -4.2136   -3.1188    1.3865 N   0  0  0  0  0  0  0  0  0  0  0  0
   -0.5589    1.2679    0.9093 C   0  0  0  0  0  0  0  0  0  0  0  0
    0.2184    1.8109    1.9457 C   0  0  0  0  0  0  0  0  0  0  0  0
   -0.2119    2.8887    2.6942 C   0  0  0  0  0  0  0  0  0  0  0  0
   -1.4781    3.4825    2.4306 C   0  0  0  0  0  0  0  0  0  0  0  0
   -1.9426    4.5210    3.1961 N   0  0  0  0  0  0  0  0  0  0  0  0
   -1.8030    1.8646    0.6460 C   0  0  0  0  0  0  0  0  0  0  0  0
   -2.2644    2.9437    1.3742 C   0  0  0  0  0  0  0  0  0  0  0  0
   -3.2496   -4.1296    2.9491 H   0  0  0  0  0  0  0  0  0  0  0  0
   -6.9079   -1.9907   -1.1160 H   0  0  0  0  0  0  0  0  0  0  0  0
   -6.7250   -2.2376    0.7008 H   0  0  0  0  0  0  0  0  0  0  0  0
   -6.2065   -3.5624   -0.4592 H   0  0  0  0  0  0  0  0  0  0  0  0
   -2.6641   -0.8746   -0.6852 H   0  0  0  0  0  0  0  0  0  0  0  0
    0.2698   -1.7649    1.4370 H   0  0  0  0  0  0  0  0  0  0  0  0
   -2.7554    5.0063    2.9099 H   0  0  0  0  0  0  0  0  0  0  0  0
   -1.3273    4.9683    3.8282 H   0  0  0  0  0  0  0  0  0  0  0  0
    0.4270    3.2862    3.4966 H   0  0  0  0  0  0  0  0  0  0  0  0
    1.2114    1.3704    2.1531 H   0  0  0  0  0  0  0  0  0  0  0  0
   -3.2441    3.3836    1.1361 H   0  0  0  0  0  0  0  0  0  0  0  0
   -2.4220    1.4621   -0.1780 H   0  0  0  0  0  0  0  0  0  0  0  0
  1  2  2  0  0  0  0
  1  4  1  0  0  0  0
  1 13  1  0  0  0  0
  3  1  2  0  0  0  0
  4  5  1  0  0  0  0
  4 25  1  0  0  0  0
  5  6  1  0  0  0  0
  6  7  2  0  0  0  0
  7 20  1  0  0  0  0
  8  5  2  0  0  0  0
  8  9  1  0  0  0  0
  9 12  2  0  0  0  0
 10  9  1  0  0  0  0
 10 11  1  0  0  0  0
 11 22  1  0  0  0  0
 12  7  1  0  0  0  0
 13 14  1  0  0  0  0
 14 29  1  0  0  0  0
 14 15  2  0  0  0  0
 15 28  1  0  0  0  0
 16 15  1  0  0  0  0
 16 17  1  0  0  0  0
 17 27  1  0  0  0  0
 18 13  2  0  0  0  0
 18 19  1  0  0  0  0
 19 16  2  0  0  0  0
 21 11  1  0  0  0  0
 23 11  1  0  0  0  0
 24  8  1  0  0  0  0
 26 17  1  0  0  0  0
 30 19  1  0  0  0  0
 31 18  1  0  0  0  0
M  END