AMF52
  Mrv1674 09121610113D          

 31 32  0  0  0  0            999 V2000
    0.0000    0.0000    0.0000 S   0  0  2  0  0  0  0  0  0  0  0  0
    1.4118    0.0000    0.0000 O   0  0  0  0  0  0  0  0  0  0  0  0
   -0.6323    0.0000   -1.2503 O   0  0  0  0  0  0  0  0  0  0  0  0
   -0.4244    1.3557    0.8632 N   0  0  0  0  0  0  0  0  0  0  0  0
   -1.6685    1.9301    1.0380 C   0  0  0  0  0  0  0  0  0  0  0  0
   -2.7768    1.2464    0.4702 O   0  0  0  0  0  0  0  0  0  0  0  0
   -3.8886    2.0485    0.7912 C   0  0  0  0  0  0  0  0  0  0  0  0
   -5.1839    1.5782    0.3060 C   0  0  0  0  0  0  0  0  0  0  0  0
   -2.0350    3.0627    1.6732 N   0  0  0  0  0  0  0  0  0  0  0  0
   -3.4350    3.1418    1.5184 C   0  0  0  0  0  0  0  0  0  0  0  0
   -4.2358    4.2486    2.0713 C   0  0  0  0  0  0  0  0  0  0  0  0
   -0.5595   -1.2491    0.9278 C   0  0  0  0  0  0  0  0  0  0  0  0
    0.2825   -1.9087    1.8391 C   0  0  0  0  0  0  0  0  0  0  0  0
   -0.1532   -2.9835    2.5886 C   0  0  0  0  0  0  0  0  0  0  0  0
   -1.4909   -3.4518    2.4578 C   0  0  0  0  0  0  0  0  0  0  0  0
   -1.9530   -4.4875    3.2292 N   0  0  0  0  0  0  0  0  0  0  0  0
   -1.8782   -1.7167    0.8007 C   0  0  0  0  0  0  0  0  0  0  0  0
   -2.3463   -2.7896    1.5339 C   0  0  0  0  0  0  0  0  0  0  0  0
   -5.9364    2.4013    0.3880 H   0  0  0  0  0  0  0  0  0  0  0  0
   -5.1084    1.2558   -0.7632 H   0  0  0  0  0  0  0  0  0  0  0  0
   -5.5341    0.7052    0.9132 H   0  0  0  0  0  0  0  0  0  0  0  0
   -5.3038    4.1398    1.7598 H   0  0  0  0  0  0  0  0  0  0  0  0
   -4.1836    4.2463    3.1892 H   0  0  0  0  0  0  0  0  0  0  0  0
   -3.8509    5.2334    1.7050 H   0  0  0  0  0  0  0  0  0  0  0  0
    0.2982    1.8788    1.3176 H   0  0  0  0  0  0  0  0  0  0  0  0
   -2.8331   -4.8882    3.0213 H   0  0  0  0  0  0  0  0  0  0  0  0
   -1.3083   -5.0218    3.7557 H   0  0  0  0  0  0  0  0  0  0  0  0
    0.5369   -3.4757    3.2895 H   0  0  0  0  0  0  0  0  0  0  0  0
    1.3284   -1.5636    1.9429 H   0  0  0  0  0  0  0  0  0  0  0  0
   -3.3847   -3.1278    1.4039 H   0  0  0  0  0  0  0  0  0  0  0  0
   -2.5537   -1.2065    0.0873 H   0  0  0  0  0  0  0  0  0  0  0  0
  1  2  2  0  0  0  0
  1  4  1  0  0  0  0
  1 12  1  0  0  0  0
  3  1  2  0  0  0  0
  4  5  1  0  0  0  0
  4 25  1  0  0  0  0
  5  9  2  0  0  0  0
  6  5  1  0  0  0  0
  6  7  1  0  0  0  0
  7 10  2  0  0  0  0
  8  7  1  0  0  0  0
  8 19  1  0  0  0  0
  8 21  1  0  0  0  0
 10  9  1  0  0  0  0
 10 11  1  0  0  0  0
 11 23  1  0  0  0  0
 12 13  1  0  0  0  0
 13 29  1  0  0  0  0
 13 14  2  0  0  0  0
 14 28  1  0  0  0  0
 15 14  1  0  0  0  0
 15 16  1  0  0  0  0
 16 27  1  0  0  0  0
 17 12  2  0  0  0  0
 17 18  1  0  0  0  0
 18 15  2  0  0  0  0
 20  8  1  0  0  0  0
 22 11  1  0  0  0  0
 24 11  1  0  0  0  0
 26 16  1  0  0  0  0
 30 18  1  0  0  0  0
 31 17  1  0  0  0  0
M  END