AMF58
  Mrv1674 09121610113D          

 69 74  0  0  0  0            999 V2000
    0.0000    0.0000    0.0000 O   0  0  0  0  0  0  0  0  0  0  0  0
    1.3657    0.0000    0.0000 C   0  0  0  0  0  0  0  0  0  0  0  0
    1.9052    0.0000    1.1121 O   0  0  0  0  0  0  0  0  0  0  0  0
    1.9597   -0.0474   -1.3464 C   0  0  0  0  0  0  0  0  0  0  0  0
    3.0123    0.7981   -1.7339 C   0  0  0  0  0  0  0  0  0  0  0  0
    3.5951    1.8125   -0.8515 C   0  0  0  0  0  0  0  0  0  0  0  0
    3.5396    3.1645   -1.2202 C   0  0  0  0  0  0  0  0  0  0  0  0
    4.1035    4.1391   -0.4014 C   0  0  0  0  0  0  0  0  0  0  0  0
    4.7421    3.7762    0.7883 C   0  0  0  0  0  0  0  0  0  0  0  0
    5.3616    4.8235    1.6722 C   0  0  1  0  0  0  0  0  0  0  0  0
    4.4278    5.6430    2.3859 N   0  0  0  0  0  0  0  0  0  0  0  0
    3.5898    5.2130    3.4272 C   0  0  0  0  0  0  0  0  0  0  0  0
    2.7547    6.3496    3.7659 C   0  0  0  0  0  0  0  0  0  0  0  0
    1.8152    6.2366    4.8074 C   0  0  0  0  0  0  0  0  0  0  0  0
    0.9671    7.3887    5.1816 C   0  0  0  0  0  0  0  0  0  0  0  0
    3.4763    3.9944    4.1015 C   0  0  0  0  0  0  0  0  0  0  0  0
    2.5228    3.9108    5.1141 C   0  0  0  0  0  0  0  0  0  0  0  0
    1.7168    5.0140    5.4647 C   0  0  0  0  0  0  0  0  0  0  0  0
    2.3544    2.6540    5.8547 C   0  0  0  0  0  0  0  0  0  0  0  0
    2.3014    1.3868    5.2104 N   0  0  0  0  0  0  0  0  0  0  0  0
    2.1323    0.4393    6.2266 C   0  0  0  0  0  0  0  0  0  0  0  0
    2.0112   -0.9565    6.2133 C   0  0  0  0  0  0  0  0  0  0  0  0
    1.8564   -1.5961    7.4334 C   0  0  0  0  0  0  0  0  0  0  0  0
    2.3379    1.1191    3.8122 C   0  0  0  0  0  0  0  0  0  0  0  0
    2.2348    2.5589    7.1992 N   0  0  0  0  0  0  0  0  0  0  0  0
    2.0949    1.1870    7.4721 C   0  0  0  0  0  0  0  0  0  0  0  0
    1.9386    0.4980    8.6842 C   0  0  0  0  0  0  0  0  0  0  0  0
    1.8215   -0.8823    8.6454 C   0  0  0  0  0  0  0  0  0  0  0  0
    4.0539    6.9867    2.1070 C   0  0  0  0  0  0  0  0  0  0  0  0
    3.0753    7.4305    2.9237 N   0  0  0  0  0  0  0  0  0  0  0  0
    4.7151    7.8070    1.0454 C   0  0  1  0  0  0  0  0  0  0  0  0
    6.0408    8.3628    1.5291 C   0  0  1  0  0  0  0  0  0  0  0  0
    6.6924    9.2077    0.4647 C   0  0  0  0  0  0  0  0  0  0  0  0
    4.2394    1.4507    0.3376 C   0  0  0  0  0  0  0  0  0  0  0  0
    4.8108    2.4281    1.1503 C   0  0  0  0  0  0  0  0  0  0  0  0
    3.5207    0.6869   -3.0387 C   0  0  0  0  0  0  0  0  0  0  0  0
    3.0033   -0.2473   -3.9308 C   0  0  0  0  0  0  0  0  0  0  0  0
    1.4283   -0.9730   -2.2567 C   0  0  0  0  0  0  0  0  0  0  0  0
    1.9536   -1.0799   -3.5407 C   0  0  0  0  0  0  0  0  0  0  0  0
    1.6078    8.2465    5.5075 H   0  0  0  0  0  0  0  0  0  0  0  0
    0.2706    7.1263    6.0150 H   0  0  0  0  0  0  0  0  0  0  0  0
    0.3632    7.7245    4.3014 H   0  0  0  0  0  0  0  0  0  0  0  0
    0.9928    4.9010    6.2880 H   0  0  0  0  0  0  0  0  0  0  0  0
    1.7586   -2.6919    7.4586 H   0  0  0  0  0  0  0  0  0  0  0  0
    2.0394   -1.5188    5.2707 H   0  0  0  0  0  0  0  0  0  0  0  0
    3.3932    0.9259    3.4729 H   0  0  0  0  0  0  0  0  0  0  0  0
    1.7198    0.2113    3.5755 H   0  0  0  0  0  0  0  0  0  0  0  0
    1.9348    1.9983    3.2418 H   0  0  0  0  0  0  0  0  0  0  0  0
    1.6979   -1.4410    9.5852 H   0  0  0  0  0  0  0  0  0  0  0  0
    1.9111    1.0491    9.6348 H   0  0  0  0  0  0  0  0  0  0  0  0
    4.1180    3.1414    3.8398 H   0  0  0  0  0  0  0  0  0  0  0  0
    6.8869    8.6063   -0.4561 H   0  0  0  0  0  0  0  0  0  0  0  0
    6.0376   10.0695    0.1890 H   0  0  0  0  0  0  0  0  0  0  0  0
    7.6661    9.6096    0.8358 H   0  0  0  0  0  0  0  0  0  0  0  0
    5.8704    8.9789    2.4515 H   0  0  0  0  0  0  0  0  0  0  0  0
    6.7245    7.5202    1.8148 H   0  0  0  0  0  0  0  0  0  0  0  0
    4.8694    7.1835    0.1241 H   0  0  0  0  0  0  0  0  0  0  0  0
    4.0332    8.6554    0.7642 H   0  0  0  0  0  0  0  0  0  0  0  0
    6.0244    4.3158    2.4349 H   0  0  0  0  0  0  0  0  0  0  0  0
    6.0096    5.4981    1.0395 H   0  0  0  0  0  0  0  0  0  0  0  0
    4.0407    5.1997   -0.6891 H   0  0  0  0  0  0  0  0  0  0  0  0
    3.0391    3.4548   -2.1564 H   0  0  0  0  0  0  0  0  0  0  0  0
    5.3106    2.1302    2.0853 H   0  0  0  0  0  0  0  0  0  0  0  0
    4.2680    0.3929    0.6451 H   0  0  0  0  0  0  0  0  0  0  0  0
    3.4208   -0.3261   -4.9462 H   0  0  0  0  0  0  0  0  0  0  0  0
    4.3421    1.3508   -3.3501 H   0  0  0  0  0  0  0  0  0  0  0  0
    1.5375   -1.8145   -4.2459 H   0  0  0  0  0  0  0  0  0  0  0  0
    0.5844   -1.6093   -1.9453 H   0  0  0  0  0  0  0  0  0  0  0  0
   -0.3237    0.0262    0.9160 H   0  0  0  0  0  0  0  0  0  0  0  0
  1 69  1  0  0  0  0
  2  1  1  0  0  0  0
  2  3  2  0  0  0  0
  4  2  1  0  0  0  0
  5  4  1  0  0  0  0
  5  6  1  0  0  0  0
  6 34  1  0  0  0  0
  7  6  2  0  0  0  0
  7  8  1  0  0  0  0
  8  9  2  0  0  0  0
  9 35  1  0  0  0  0
  9 10  1  0  0  0  0
 10 11  1  0  0  0  0
 10 59  1  0  0  0  0
 11 12  1  0  0  0  0
 12 13  2  0  0  0  0
 12 16  1  0  0  0  0
 13 14  1  0  0  0  0
 14 15  1  0  0  0  0
 14 18  2  0  0  0  0
 15 40  1  0  0  0  0
 15 41  1  0  0  0  0
 16 17  2  0  0  0  0
 17 18  1  0  0  0  0
 17 19  1  0  0  0  0
 18 43  1  0  0  0  0
 19 25  2  0  0  0  0
 20 19  1  0  0  0  0
 20 21  1  0  0  0  0
 21 26  2  0  0  0  0
 22 21  1  0  0  0  0
 22 23  2  0  0  0  0
 23 44  1  0  0  0  0
 23 28  1  0  0  0  0
 24 20  1  0  0  0  0
 25 26  1  0  0  0  0
 26 27  1  0  0  0  0
 27 50  1  0  0  0  0
 28 27  2  0  0  0  0
 28 49  1  0  0  0  0
 29 11  1  0  0  0  0
 29 30  2  0  0  0  0
 30 13  1  0  0  0  0
 31 29  1  0  0  0  0
 31 32  1  0  0  0  0
 32 56  1  0  0  0  0
 32 55  1  0  0  0  0
 33 32  1  0  0  0  0
 33 54  1  0  0  0  0
 34 64  1  0  0  0  0
 34 35  2  0  0  0  0
 35 63  1  0  0  0  0
 36  5  2  0  0  0  0
 37 36  1  0  0  0  0
 37 39  2  0  0  0  0
 38  4  2  0  0  0  0
 38 68  1  0  0  0  0
 39 38  1  0  0  0  0
 42 15  1  0  0  0  0
 45 22  1  0  0  0  0
 46 24  1  0  0  0  0
 47 24  1  0  0  0  0
 48 24  1  0  0  0  0
 51 16  1  0  0  0  0
 52 33  1  0  0  0  0
 53 33  1  0  0  0  0
 57 31  1  0  0  0  0
 58 31  1  0  0  0  0
 60 10  1  0  0  0  0
 61  8  1  0  0  0  0
 62  7  1  0  0  0  0
 65 37  1  0  0  0  0
 66 36  1  0  0  0  0
 67 39  1  0  0  0  0
M  END