AMF53
  Mrv1674 09121610113D          

 19 19  0  0  0  0            999 V2000
    0.0000    0.0000    0.0000 S   0  0  2  0  0  0  0  0  0  0  0  0
    1.4136    0.0000    0.0000 O   0  0  0  0  0  0  0  0  0  0  0  0
   -0.6520    0.0000   -1.2542 O   0  0  0  0  0  0  0  0  0  0  0  0
   -0.5135    1.2655    0.8456 N   0  0  0  0  0  0  0  0  0  0  0  0
   -0.5386   -1.3121    0.8870 C   0  0  0  0  0  0  0  0  0  0  0  0
    0.2625   -1.8916    1.8815 C   0  0  0  0  0  0  0  0  0  0  0  0
   -0.1585   -2.9884    2.6108 C   0  0  0  0  0  0  0  0  0  0  0  0
   -1.4305   -3.5696    2.3560 C   0  0  0  0  0  0  0  0  0  0  0  0
   -1.8428   -4.6916    3.0350 N   0  0  0  0  0  0  0  0  0  0  0  0
   -1.7903   -1.8918    0.6347 C   0  0  0  0  0  0  0  0  0  0  0  0
   -2.2432   -2.9886    1.3447 C   0  0  0  0  0  0  0  0  0  0  0  0
   -1.3858    1.7043    0.6964 H   0  0  0  0  0  0  0  0  0  0  0  0
    0.0212    1.7042    1.5508 H   0  0  0  0  0  0  0  0  0  0  0  0
   -1.3387   -4.9749    3.8376 H   0  0  0  0  0  0  0  0  0  0  0  0
   -2.7872   -4.9755    2.9572 H   0  0  0  0  0  0  0  0  0  0  0  0
    0.5002   -3.4180    3.3797 H   0  0  0  0  0  0  0  0  0  0  0  0
    1.2647   -1.4659    2.0734 H   0  0  0  0  0  0  0  0  0  0  0  0
   -3.2292   -3.4184    1.1148 H   0  0  0  0  0  0  0  0  0  0  0  0
   -2.4228   -1.4663   -0.1661 H   0  0  0  0  0  0  0  0  0  0  0  0
  1  2  2  0  0  0  0
  1  4  1  0  0  0  0
  1  5  1  0  0  0  0
  3  1  2  0  0  0  0
  4 13  1  0  0  0  0
  5  6  1  0  0  0  0
  6 17  1  0  0  0  0
  6  7  2  0  0  0  0
  7 16  1  0  0  0  0
  8  7  1  0  0  0  0
  8  9  1  0  0  0  0
  9 14  1  0  0  0  0
 10  5  2  0  0  0  0
 10 11  1  0  0  0  0
 11  8  2  0  0  0  0
 12  4  1  0  0  0  0
 15  9  1  0  0  0  0
 18 11  1  0  0  0  0
 19 10  1  0  0  0  0
M  END