AMF55
  Mrv1674 09121610113D          

 33 35  0  0  0  0            999 V2000
    0.0000    0.0000    0.0000 S   0  0  1  0  0  0  0  0  0  0  0  0
    1.4109    0.0000    0.0000 O   0  0  0  0  0  0  0  0  0  0  0  0
   -0.6427    0.0000   -1.2535 O   0  0  0  0  0  0  0  0  0  0  0  0
   -0.4486   -1.3295    0.8689 N   0  0  0  0  0  0  0  0  0  0  0  0
   -1.7212   -1.8904    1.0303 C   0  0  0  0  0  0  0  0  0  0  0  0
   -1.9736   -2.6682    2.0958 N   0  0  0  0  0  0  0  0  0  0  0  0
   -3.2424   -3.2031    2.2051 C   0  0  0  0  0  0  0  0  0  0  0  0
   -3.5639   -4.0409    3.3178 C   0  0  0  0  0  0  0  0  0  0  0  0
   -4.8244   -4.5713    3.4387 C   0  0  0  0  0  0  0  0  0  0  0  0
   -2.7683   -1.6366    0.0244 C   0  0  0  0  0  0  0  0  0  0  0  0
   -3.9778   -2.1349    0.1266 N   0  0  0  0  0  0  0  0  0  0  0  0
   -4.2585   -2.9345    1.2242 C   0  0  0  0  0  0  0  0  0  0  0  0
   -5.5549   -3.5064    1.3890 C   0  0  0  0  0  0  0  0  0  0  0  0
   -5.8222   -4.3044    2.4740 C   0  0  0  0  0  0  0  0  0  0  0  0
   -0.5628    1.2673    0.9063 C   0  0  0  0  0  0  0  0  0  0  0  0
    0.2021    1.8004    1.9572 C   0  0  0  0  0  0  0  0  0  0  0  0
   -0.2333    2.8761    2.7055 C   0  0  0  0  0  0  0  0  0  0  0  0
   -1.4924    3.4785    2.4268 C   0  0  0  0  0  0  0  0  0  0  0  0
   -1.9605    4.5170    3.1879 N   0  0  0  0  0  0  0  0  0  0  0  0
   -1.7993    1.8732    0.6278 C   0  0  0  0  0  0  0  0  0  0  0  0
   -2.2660    2.9500    1.3551 C   0  0  0  0  0  0  0  0  0  0  0  0
   -5.0719   -5.2167    4.2957 H   0  0  0  0  0  0  0  0  0  0  0  0
   -2.7878   -4.2513    4.0704 H   0  0  0  0  0  0  0  0  0  0  0  0
   -6.8212   -4.7476    2.6033 H   0  0  0  0  0  0  0  0  0  0  0  0
   -6.3304   -3.2988    0.6345 H   0  0  0  0  0  0  0  0  0  0  0  0
   -2.5517   -1.0241   -0.8751 H   0  0  0  0  0  0  0  0  0  0  0  0
    0.2530   -1.7661    1.4348 H   0  0  0  0  0  0  0  0  0  0  0  0
   -1.3603    4.9485    3.8445 H   0  0  0  0  0  0  0  0  0  0  0  0
   -2.7760    4.9990    2.9048 H   0  0  0  0  0  0  0  0  0  0  0  0
    0.3957    3.2656    3.5194 H   0  0  0  0  0  0  0  0  0  0  0  0
    1.1893    1.3533    2.1768 H   0  0  0  0  0  0  0  0  0  0  0  0
   -3.2395    3.3970    1.1051 H   0  0  0  0  0  0  0  0  0  0  0  0
   -2.4070    1.4804   -0.2092 H   0  0  0  0  0  0  0  0  0  0  0  0
  1  2  2  0  0  0  0
  1  4  1  0  0  0  0
  1 15  1  0  0  0  0
  3  1  2  0  0  0  0
  4  5  1  0  0  0  0
  4 27  1  0  0  0  0
  5  6  1  0  0  0  0
  6  7  2  0  0  0  0
  7  8  1  0  0  0  0
  8  9  2  0  0  0  0
  8 23  1  0  0  0  0
  9 22  1  0  0  0  0
 10  5  2  0  0  0  0
 10 11  1  0  0  0  0
 11 12  2  0  0  0  0
 12  7  1  0  0  0  0
 12 13  1  0  0  0  0
 13 14  2  0  0  0  0
 14  9  1  0  0  0  0
 14 24  1  0  0  0  0
 15 16  1  0  0  0  0
 16 31  1  0  0  0  0
 16 17  2  0  0  0  0
 17 30  1  0  0  0  0
 18 17  1  0  0  0  0
 18 19  1  0  0  0  0
 19 28  1  0  0  0  0
 20 15  2  0  0  0  0
 20 21  1  0  0  0  0
 21 18  2  0  0  0  0
 25 13  1  0  0  0  0
 26 10  1  0  0  0  0
 29 19  1  0  0  0  0
 32 21  1  0  0  0  0
 33 20  1  0  0  0  0
M  END