AMF60
  Mrv1674 09121610113D          

 50 52  0  0  0  0            999 V2000
    0.0000    0.0000    0.0000 C   0  0  0  0  0  0  0  0  0  0  0  0
    1.4347    0.0000    0.0000 C   0  0  0  0  0  0  0  0  0  0  0  0
    1.9393    0.0000    1.2922 C   0  0  0  0  0  0  0  0  0  0  0  0
    3.3358    0.0094    1.6950 C   0  0  0  0  0  0  0  0  0  0  0  0
    3.8461   -1.2145    2.2821 C   0  0  0  0  0  0  0  0  0  0  0  0
    4.7074   -1.3355    3.3653 C   0  0  0  0  0  0  0  0  0  0  0  0
    5.0060   -2.7106    3.6431 C   0  0  0  0  0  0  0  0  0  0  0  0
    5.2667   -0.2394    4.1687 C   0  0  0  0  0  0  0  0  0  0  0  0
    3.4425   -2.7313    1.6623 S   0  0  0  0  0  0  0  0  0  0  0  0
    4.3682   -3.5607    2.7692 C   0  0  0  0  0  0  0  0  0  0  0  0
    4.1310    1.0894    1.5388 C   0  0  0  0  0  0  0  0  0  0  0  0
    3.6826    2.3785    0.9689 C   0  0  1  0  0  0  0  0  0  0  0  0
    4.8373    3.2297    0.4390 C   0  0  1  0  0  0  0  0  0  0  0  0
    5.7619    3.6995    1.4641 N   0  0  1  0  0  0  0  0  0  0  0  0
    7.0581    4.0600    0.9005 C   0  0  2  0  0  0  0  0  0  0  0  0
    8.0575    4.5341    1.9532 C   0  0  2  0  0  0  0  0  0  0  0  0
    7.4874    5.6624    2.7834 C   0  0  1  0  0  0  0  0  0  0  0  0
    5.1916    4.7618    2.2806 C   0  0  2  0  0  0  0  0  0  0  0  0
    6.1531    5.2398    3.3814 C   0  0  2  0  0  0  0  0  0  0  0  0
    5.5259    6.4039    4.0940 C   0  0  0  0  0  0  0  0  0  0  0  0
    5.4988    6.2705    5.4505 O   0  0  0  0  0  0  0  0  0  0  0  0
    5.0475    7.4436    3.6322 O   0  0  0  0  0  0  0  0  0  0  0  0
    2.2196   -0.0032   -1.2429 C   0  0  0  0  0  0  0  0  0  0  0  0
   -0.5113    0.0037    1.2774 C   0  0  0  0  0  0  0  0  0  0  0  0
    0.6933    0.0025    2.4273 S   0  0  0  0  0  0  0  0  0  0  0  0
   -0.5887   -0.0035   -0.9192 H   0  0  0  0  0  0  0  0  0  0  0  0
    5.6627   -3.0171    4.4595 H   0  0  0  0  0  0  0  0  0  0  0  0
    5.3838   -0.5543    5.2354 H   0  0  0  0  0  0  0  0  0  0  0  0
    6.2753    0.0513    3.7772 H   0  0  0  0  0  0  0  0  0  0  0  0
    4.6056    0.6626    4.1311 H   0  0  0  0  0  0  0  0  0  0  0  0
    4.4409   -4.6471    2.7811 H   0  0  0  0  0  0  0  0  0  0  0  0
    5.1866    1.0400    1.8591 H   0  0  0  0  0  0  0  0  0  0  0  0
    2.9813    2.1925    0.1074 H   0  0  0  0  0  0  0  0  0  0  0  0
    3.1009    2.9424    1.7479 H   0  0  0  0  0  0  0  0  0  0  0  0
    5.4207    2.6017   -0.2936 H   0  0  0  0  0  0  0  0  0  0  0  0
    4.3911    4.0946   -0.1366 H   0  0  0  0  0  0  0  0  0  0  0  0
    8.9856    4.8800    1.4293 H   0  0  0  0  0  0  0  0  0  0  0  0
    8.3391    3.6783    2.6208 H   0  0  0  0  0  0  0  0  0  0  0  0
    8.2012    5.9331    3.6037 H   0  0  0  0  0  0  0  0  0  0  0  0
    7.3378    6.5727    2.1445 H   0  0  0  0  0  0  0  0  0  0  0  0
    6.9568    4.8657    0.1144 H   0  0  0  0  0  0  0  0  0  0  0  0
    7.4760    3.1422    0.3981 H   0  0  0  0  0  0  0  0  0  0  0  0
    5.0894    7.0560    5.8490 H   0  0  0  0  0  0  0  0  0  0  0  0
    6.3224    4.4071    4.1206 H   0  0  0  0  0  0  0  0  0  0  0  0
    4.2626    4.3569    2.7712 H   0  0  0  0  0  0  0  0  0  0  0  0
    4.8939    5.6597    1.6609 H   0  0  0  0  0  0  0  0  0  0  0  0
    3.3163   -0.0001   -1.0238 H   0  0  0  0  0  0  0  0  0  0  0  0
    1.9795   -0.9112   -1.8513 H   0  0  0  0  0  0  0  0  0  0  0  0
    1.9770    0.9017   -1.8557 H   0  0  0  0  0  0  0  0  0  0  0  0
   -1.5700    0.0046    1.5324 H   0  0  0  0  0  0  0  0  0  0  0  0
  1 24  2  0  0  0  0
  2  1  1  0  0  0  0
  2  3  2  0  0  0  0
  3  4  1  0  0  0  0
  3 25  1  0  0  0  0
  4  5  1  0  0  0  0
  5  6  2  0  0  0  0
  6  7  1  0  0  0  0
  6  8  1  0  0  0  0
  7 27  1  0  0  0  0
  8 28  1  0  0  0  0
  9  5  1  0  0  0  0
  9 10  1  0  0  0  0
 10  7  2  0  0  0  0
 10 31  1  0  0  0  0
 11  4  2  0  0  0  0
 11 32  1  0  0  0  0
 12 11  1  0  0  0  0
 12 34  1  0  0  0  0
 13 12  1  0  0  0  0
 13 14  1  0  0  0  0
 14 18  1  0  0  0  0
 15 14  1  0  0  0  0
 15 16  1  0  0  0  0
 16 38  1  0  0  0  0
 16 17  1  0  0  0  0
 17 19  1  0  0  0  0
 17 39  1  0  0  0  0
 18 45  1  0  0  0  0
 18 19  1  0  0  0  0
 19 20  1  0  0  0  0
 19 44  1  1  0  0  0
 20 21  1  0  0  0  0
 21 43  1  0  0  0  0
 22 20  2  0  0  0  0
 23  2  1  0  0  0  0
 23 47  1  0  0  0  0
 24 50  1  0  0  0  0
 24 25  1  0  0  0  0
 26  1  1  0  0  0  0
 29  8  1  0  0  0  0
 30  8  1  0  0  0  0
 33 12  1  0  0  0  0
 35 13  1  0  0  0  0
 36 13  1  0  0  0  0
 37 16  1  0  0  0  0
 40 17  1  0  0  0  0
 41 15  1  0  0  0  0
 42 15  1  0  0  0  0
 46 18  1  0  0  0  0
 48 23  1  0  0  0  0
 49 23  1  0  0  0  0
M  END