AMF7
  Mrv1674 09121610113D          

 43 46  0  0  0  0            999 V2000
    0.0000    0.0000    0.0000 C   0  0  2  0  0  0  0  0  0  0  0  0
    1.4672    0.0000    0.0000 N   0  0  1  0  0  0  0  0  0  0  0  0
    2.2324    0.0000    1.1657 C   0  0  0  0  0  0  0  0  0  0  0  0
    1.7021    0.0254    2.4230 C   0  0  0  0  0  0  0  0  0  0  0  0
    0.2425   -0.0168    2.6880 C   0  0  1  0  0  0  0  0  0  0  0  0
   -0.7685   -0.7307    1.4194 S   0  0  0  0  0  0  0  0  0  0  0  0
    3.7151    0.0003    0.9700 C   0  0  0  0  0  0  0  0  0  0  0  0
    1.5900   -0.8507   -1.1501 C   0  0  0  0  0  0  0  0  0  0  0  0
    0.0286   -0.8587   -1.3270 C   0  0  1  0  0  0  0  0  0  0  0  0
    2.5512   -1.3003   -1.7436 O   0  0  0  0  0  0  0  0  0  0  0  0
    2.5467    0.1160    3.6350 C   0  0  2  0  0  0  0  0  0  0  0  0
    3.3079    1.8955    5.5843 C   0  0  0  0  0  0  0  0  0  0  0  0
    2.6030    1.8407    4.0752 S   0  0  0  0  0  0  0  0  0  0  0  0
    3.6872    3.3802    6.3515 S   0  0  0  0  0  0  0  0  0  0  0  0
    4.2872    2.4783    7.6910 C   0  0  0  0  0  0  0  0  0  0  0  0
    4.8477    3.1143    8.8961 C   0  0  0  0  0  0  0  0  0  0  0  0
    4.1793    1.1414    7.4959 N   0  0  0  0  0  0  0  0  0  0  0  0
    3.6480    0.8231    6.3550 N   0  0  0  0  0  0  0  0  0  0  0  0
   -0.5959   -2.1288   -1.3010 N   0  0  0  0  0  0  0  0  0  0  0  0
   -2.0872   -3.9315   -2.1912 C   0  0  1  0  0  0  0  0  0  0  0  0
   -1.4256   -2.5498   -2.3203 C   0  0  0  0  0  0  0  0  0  0  0  0
   -1.1733   -5.0143   -1.9381 N   0  0  0  0  0  0  0  0  0  0  0  0
   -0.6226   -5.3287   -0.7365 N   0  0  0  0  0  0  0  0  0  0  0  0
    0.1278   -6.3455   -0.9116 N   0  0  0  0  0  0  0  0  0  0  0  0
    0.1426   -6.7690   -2.1826 N   0  0  0  0  0  0  0  0  0  0  0  0
   -0.6743   -5.9406   -2.8792 C   0  0  0  0  0  0  0  0  0  0  0  0
   -0.9223   -5.9534   -3.9445 H   0  0  0  0  0  0  0  0  0  0  0  0
    4.5340   -0.8130    1.4006 O   0  0  0  0  0  0  0  0  0  0  0  0
    4.1828    1.0406    0.2321 O   0  0  0  0  0  0  0  0  0  0  0  0
    5.9133    2.8016    9.0431 H   0  0  0  0  0  0  0  0  0  0  0  0
    4.8112    4.2276    8.8037 H   0  0  0  0  0  0  0  0  0  0  0  0
    4.2676    2.8109    9.8051 H   0  0  0  0  0  0  0  0  0  0  0  0
    0.0303   -0.6487    3.5921 H   0  0  0  0  0  0  0  0  0  0  0  0
   -0.1166    1.0231    2.9075 H   0  0  0  0  0  0  0  0  0  0  0  0
   -0.3953    1.0324   -0.1671 H   0  0  0  0  0  0  0  0  0  0  0  0
    3.5836   -0.2725    3.4635 H   0  0  0  0  0  0  0  0  0  0  0  0
    2.1090   -0.4897    4.4693 H   0  0  0  0  0  0  0  0  0  0  0  0
    5.1468    0.9522    0.1292 H   0  0  0  0  0  0  0  0  0  0  0  0
   -0.2912   -0.2692   -2.2302 H   0  0  0  0  0  0  0  0  0  0  0  0
   -0.4728   -2.6856   -0.4830 H   0  0  0  0  0  0  0  0  0  0  0  0
   -2.8536   -3.8764   -1.3638 H   0  0  0  0  0  0  0  0  0  0  0  0
   -2.6152   -4.1370   -3.1673 H   0  0  0  0  0  0  0  0  0  0  0  0
   -1.6774   -1.8448   -3.3132 O   0  0  0  0  0  0  0  0  0  0  0  0
  1 35  1  6  0  0  0
  1  2  1  0  0  0  0
  1  6  1  0  0  0  0
  2  3  1  0  0  0  0
  3  4  2  0  0  0  0
  4  5  1  0  0  0  0
  4 11  1  0  0  0  0
  5 34  1  0  0  0  0
  5 33  1  0  0  0  0
  6  5  1  0  0  0  0
  7  3  1  0  0  0  0
  7 28  2  0  0  0  0
  8  2  1  0  0  0  0
  9  1  1  0  0  0  0
  9  8  1  0  0  0  0
  9 39  1  6  0  0  0
  9 19  1  0  0  0  0
 10  8  2  0  0  0  0
 11 13  1  0  0  0  0
 11 37  1  0  0  0  0
 12 14  1  0  0  0  0
 12 18  2  0  0  0  0
 13 12  1  0  0  0  0
 14 15  1  0  0  0  0
 15 16  1  0  0  0  0
 16 30  1  0  0  0  0
 16 32  1  0  0  0  0
 17 15  2  0  0  0  0
 18 17  1  0  0  0  0
 19 40  1  0  0  0  0
 20 22  1  0  0  0  0
 20 41  1  0  0  0  0
 21 19  1  0  0  0  0
 21 20  1  0  0  0  0
 22 23  1  0  0  0  0
 24 23  2  0  0  0  0
 25 24  1  0  0  0  0
 26 22  1  0  0  0  0
 26 25  2  0  0  0  0
 27 26  1  0  0  0  0
 29  7  1  0  0  0  0
 31 16  1  0  0  0  0
 36 11  1  0  0  0  0
 38 29  1  0  0  0  0
 42 20  1  0  0  0  0
 43 21  2  0  0  0  0
M  END