AMF9
  Mrv1674 09121610113D          

 41 43  0  0  0  0            999 V2000
    0.0000    0.0000    0.0000 S   0  0  0  0  0  0  0  0  0  0  0  0
    1.7742    0.0000    0.0000 C   0  0  1  0  0  0  0  0  0  0  0  0
    2.4160    0.0000    1.3195 N   0  0  2  0  0  0  0  0  0  0  0  0
    3.0259   -1.2899    1.1543 C   0  0  0  0  0  0  0  0  0  0  0  0
    3.7196   -1.9684    1.8892 O   0  0  0  0  0  0  0  0  0  0  0  0
    1.7996    0.5155    2.4638 C   0  0  0  0  0  0  0  0  0  0  0  0
    2.5845    0.4229    3.7296 C   0  0  0  0  0  0  0  0  0  0  0  0
    3.8267    0.9724    3.6693 O   0  0  0  0  0  0  0  0  0  0  0  0
    2.2328   -0.0653    4.8060 O   0  0  0  0  0  0  0  0  0  0  0  0
    2.4959   -1.3708   -0.3228 C   0  0  1  0  0  0  0  0  0  0  0  0
    1.6934   -2.4881   -0.6394 N   0  0  0  0  0  0  0  0  0  0  0  0
    1.9619   -3.3044   -1.7230 C   0  0  0  0  0  0  0  0  0  0  0  0
    2.9373   -3.1145   -2.4707 O   0  0  0  0  0  0  0  0  0  0  0  0
    1.0117   -4.5044   -1.9702 C   0  0  2  0  0  0  0  0  0  0  0  0
   -0.3554   -4.0458   -2.1257 N   0  0  2  0  0  0  0  0  0  0  0  0
    1.1987   -5.5048   -0.8585 C   0  0  0  0  0  0  0  0  0  0  0  0
    0.4925   -5.4050    0.3449 C   0  0  0  0  0  0  0  0  0  0  0  0
    0.6937   -6.3472    1.3534 C   0  0  0  0  0  0  0  0  0  0  0  0
    1.6010   -7.3899    1.1686 C   0  0  0  0  0  0  0  0  0  0  0  0
    2.1086   -6.5532   -1.0411 C   0  0  0  0  0  0  0  0  0  0  0  0
    2.3086   -7.4906   -0.0292 C   0  0  0  0  0  0  0  0  0  0  0  0
   -0.2754    1.2173    1.2571 C   0  0  2  0  0  0  0  0  0  0  0  0
    0.5711    1.1035    2.4686 C   0  0  0  0  0  0  0  0  0  0  0  0
   -0.0253    1.7097    3.6825 C   0  0  0  0  0  0  0  0  0  0  0  0
    4.2809    0.8298    4.5178 H   0  0  0  0  0  0  0  0  0  0  0  0
   -1.0052   -4.7731   -1.9065 H   0  0  0  0  0  0  0  0  0  0  0  0
   -0.5100   -3.7116   -3.0548 H   0  0  0  0  0  0  0  0  0  0  0  0
    1.7613   -8.1291    1.9672 H   0  0  0  0  0  0  0  0  0  0  0  0
    0.1380   -6.2620    2.2990 H   0  0  0  0  0  0  0  0  0  0  0  0
   -0.2223   -4.5836    0.5077 H   0  0  0  0  0  0  0  0  0  0  0  0
    3.0290   -8.3088   -0.1767 H   0  0  0  0  0  0  0  0  0  0  0  0
    2.6748   -6.6337   -1.9819 H   0  0  0  0  0  0  0  0  0  0  0  0
    1.4014   -4.9732   -2.9308 H   0  0  0  0  0  0  0  0  0  0  0  0
    0.8489   -2.6208   -0.1275 H   0  0  0  0  0  0  0  0  0  0  0  0
    3.3294   -1.2509   -1.0691 H   0  0  0  0  0  0  0  0  0  0  0  0
    2.1570    0.8433   -0.6252 H   0  0  0  0  0  0  0  0  0  0  0  0
    0.7207    1.8328    4.5057 H   0  0  0  0  0  0  0  0  0  0  0  0
   -0.8517    1.0543    4.0594 H   0  0  0  0  0  0  0  0  0  0  0  0
   -0.4541    2.7141    3.4387 H   0  0  0  0  0  0  0  0  0  0  0  0
   -1.3571    1.0996    1.5319 H   0  0  0  0  0  0  0  0  0  0  0  0
   -0.1443    2.2410    0.8190 H   0  0  0  0  0  0  0  0  0  0  0  0
  1  2  1  0  0  0  0
  1 22  1  0  0  0  0
  2 36  1  6  0  0  0
  2  3  1  0  0  0  0
  3  6  1  0  0  0  0
  4  3  1  0  0  0  0
  4  5  2  0  0  0  0
  6 23  2  0  0  0  0
  6  7  1  0  0  0  0
  7  9  2  0  0  0  0
  8  7  1  0  0  0  0
  8 25  1  0  0  0  0
 10  2  1  0  0  0  0
 10  4  1  0  0  0  0
 10 35  1  6  0  0  0
 11 10  1  0  0  0  0
 11 34  1  0  0  0  0
 12 11  1  0  0  0  0
 13 12  2  0  0  0  0
 14 12  1  0  0  0  0
 14 33  1  6  0  0  0
 14 16  1  0  0  0  0
 15 14  1  0  0  0  0
 15 26  1  0  0  0  0
 16 17  1  0  0  0  0
 17 30  1  0  0  0  0
 17 18  2  0  0  0  0
 18 29  1  0  0  0  0
 19 18  1  0  0  0  0
 19 28  1  0  0  0  0
 20 16  2  0  0  0  0
 20 21  1  0  0  0  0
 21 19  2  0  0  0  0
 22 40  1  0  0  0  0
 22 23  1  0  0  0  0
 23 24  1  0  0  0  0
 24 38  1  0  0  0  0
 24 37  1  0  0  0  0
 27 15  1  0  0  0  0
 31 21  1  0  0  0  0
 32 20  1  0  0  0  0
 39 24  1  0  0  0  0
 41 22  1  0  0  0  0
M  END