N1
  Mrv1674 09121610113D          

 73 76  0  0  0  0            999 V2000
    0.0000    0.0000    0.0000 C   0  0  2  0  0  0  0  0  0  0  0  0
    1.5118    0.0000    0.0000 C   0  0  0  0  0  0  0  0  0  0  0  0
    2.2437    0.0000    1.1261 C   0  0  0  0  0  0  0  0  0  0  0  0
    1.6444   -0.0423    2.4682 C   0  0  0  0  0  0  0  0  0  0  0  0
    0.1755   -0.1277    2.5030 C   0  0  0  0  0  0  0  0  0  0  0  0
   -0.5619   -0.1281    1.3877 C   0  0  0  0  0  0  0  0  0  0  0  0
    2.1552    0.0341   -1.3435 C   0  0  2  0  0  0  0  0  0  0  0  0
    1.6602   -1.0981   -2.2197 C   0  0  2  0  0  0  0  0  0  0  0  0
    0.1420   -1.1231   -2.2805 C   0  0  2  0  0  0  0  0  0  0  0  0
   -0.4904   -1.1872   -0.8767 C   0  0  2  0  0  0  0  0  0  0  0  0
   -0.3484   -2.2895   -3.1126 C   0  0  1  0  0  0  0  0  0  0  0  0
   -1.8798   -2.2604   -3.2900 C   0  0  2  0  0  0  0  0  0  0  0  0
   -2.5110   -2.4134   -1.9177 C   0  0  2  0  0  0  0  0  0  0  0  0
   -2.0330   -1.3338   -0.9385 C   0  0  2  0  0  0  0  0  0  0  0  0
    0.1743   -2.4639   -4.5298 C   0  0  1  0  0  0  0  0  0  0  0  0
   -0.8072   -3.4589   -5.1754 C   0  0  1  0  0  0  0  0  0  0  0  0
   -2.0902   -3.4602   -4.2859 C   0  0  1  0  0  0  0  0  0  0  0  0
    2.3309   -0.0123    3.4990 O   0  0  0  0  0  0  0  0  0  0  0  0
   -0.4615    1.3656   -0.5269 C   0  0  0  0  0  0  0  0  0  0  0  0
   -2.5998   -0.0630   -1.2280 O   0  0  0  0  0  0  0  0  0  0  0  0
   -2.3892   -0.9992   -3.9715 C   0  0  0  0  0  0  0  0  0  0  0  0
    0.0643   -2.6930   -0.0435 Cl  0  0  0  0  0  0  0  0  0  0  0  0
   -1.0262   -3.1554   -6.6338 C   0  0  0  0  0  0  0  0  0  0  0  0
   -2.0794   -4.6382   -3.4500 O   0  0  0  0  0  0  0  0  0  0  0  0
   -1.9185   -6.9677   -2.9897 C   0  0  2  0  0  0  0  0  0  0  0  0
   -2.1207   -5.8871   -4.0102 C   0  0  0  0  0  0  0  0  0  0  0  0
   -0.9234   -7.9894   -3.4784 C   0  0  0  0  0  0  0  0  0  0  0  0
   -2.3464   -5.9996   -5.2156 O   0  0  0  0  0  0  0  0  0  0  0  0
   -3.4334   -3.3303   -4.9906 C   0  0  0  0  0  0  0  0  0  0  0  0
   -3.6090   -2.6485   -6.0002 O   0  0  0  0  0  0  0  0  0  0  0  0
   -6.2967   -2.3947   -4.1413 C   0  0  0  0  0  0  0  0  0  0  0  0
   -5.8461   -3.5461   -4.7328 O   0  0  0  0  0  0  0  0  0  0  0  0
   -4.5805   -4.0580   -4.3215 C   0  0  2  0  0  0  0  0  0  0  0  0
   -8.4904   -1.3466   -3.6477 C   0  0  0  0  0  0  0  0  0  0  0  0
   -7.6000   -1.9322   -4.7130 C   0  0  1  0  0  0  0  0  0  0  0  0
    3.3456    0.0208    1.0989 H   0  0  0  0  0  0  0  0  0  0  0  0
   -0.2798   -0.1953    3.5039 H   0  0  0  0  0  0  0  0  0  0  0  0
   -1.6631   -0.1815    1.4312 H   0  0  0  0  0  0  0  0  0  0  0  0
    2.0457   -2.0768   -1.8305 H   0  0  0  0  0  0  0  0  0  0  0  0
    3.2716   -0.0325   -1.2474 H   0  0  0  0  0  0  0  0  0  0  0  0
    1.9175    1.0209   -1.8282 H   0  0  0  0  0  0  0  0  0  0  0  0
    0.1721    2.1691   -0.0788 H   0  0  0  0  0  0  0  0  0  0  0  0
   -0.3796    1.4207   -1.6364 H   0  0  0  0  0  0  0  0  0  0  0  0
   -1.5260    1.5556   -0.2449 H   0  0  0  0  0  0  0  0  0  0  0  0
    2.0622   -0.9682   -3.2593 H   0  0  0  0  0  0  0  0  0  0  0  0
   -0.2021   -0.1616   -2.7573 H   0  0  0  0  0  0  0  0  0  0  0  0
    0.1796   -1.4909   -5.0812 H   0  0  0  0  0  0  0  0  0  0  0  0
   -3.4529   -0.2148   -1.6582 H   0  0  0  0  0  0  0  0  0  0  0  0
   -2.3986   -1.6297    0.0916 H   0  0  0  0  0  0  0  0  0  0  0  0
   -0.0936   -3.2404   -2.5547 H   0  0  0  0  0  0  0  0  0  0  0  0
   -2.2527   -3.4194   -1.4935 H   0  0  0  0  0  0  0  0  0  0  0  0
   -0.3598   -4.4909   -5.1027 H   0  0  0  0  0  0  0  0  0  0  0  0
   -3.6302   -2.3529   -2.0035 H   0  0  0  0  0  0  0  0  0  0  0  0
   -0.0510   -3.2188   -7.1756 H   0  0  0  0  0  0  0  0  0  0  0  0
   -1.4485   -2.1319   -6.7815 H   0  0  0  0  0  0  0  0  0  0  0  0
   -1.7344   -3.8964   -7.0799 H   0  0  0  0  0  0  0  0  0  0  0  0
   -3.5091   -0.9910   -3.9632 H   0  0  0  0  0  0  0  0  0  0  0  0
   -2.0425   -0.9549   -5.0332 H   0  0  0  0  0  0  0  0  0  0  0  0
   -2.0331   -0.0824   -3.4436 H   0  0  0  0  0  0  0  0  0  0  0  0
   -4.4765   -4.0057   -3.2052 H   0  0  0  0  0  0  0  0  0  0  0  0
   -4.5956   -5.1260   -4.6781 H   0  0  0  0  0  0  0  0  0  0  0  0
    0.0944   -7.5389   -3.5690 H   0  0  0  0  0  0  0  0  0  0  0  0
   -0.8724   -8.8391   -2.7555 H   0  0  0  0  0  0  0  0  0  0  0  0
   -1.2255   -8.3840   -4.4794 H   0  0  0  0  0  0  0  0  0  0  0  0
   -2.9179   -7.4495   -2.8135 H   0  0  0  0  0  0  0  0  0  0  0  0
   -1.5765   -6.5142   -2.0218 H   0  0  0  0  0  0  0  0  0  0  0  0
   -8.8132   -2.1337   -2.9244 H   0  0  0  0  0  0  0  0  0  0  0  0
   -7.9517   -0.5483   -3.0810 H   0  0  0  0  0  0  0  0  0  0  0  0
   -9.4000   -0.9032   -4.1200 H   0  0  0  0  0  0  0  0  0  0  0  0
   -7.3578   -1.1596   -5.4931 H   0  0  0  0  0  0  0  0  0  0  0  0
   -8.1078   -2.7900   -5.2291 H   0  0  0  0  0  0  0  0  0  0  0  0
    1.2140   -2.8714   -4.5368 H   0  0  0  0  0  0  0  0  0  0  0  0
   -5.6095   -1.8876   -3.2508 O   0  0  0  0  0  0  0  0  0  0  0  0
  1 19  1  6  0  0  0
  1  6  1  0  0  0  0
  2  1  1  0  0  0  0
  2  3  2  0  0  0  0
  3  4  1  0  0  0  0
  4  5  1  0  0  0  0
  4 18  2  0  0  0  0
  5 37  1  0  0  0  0
  6  5  2  0  0  0  0
  6 38  1  0  0  0  0
  7  2  1  0  0  0  0
  7 40  1  0  0  0  0
  8  7  1  0  0  0  0
  8 39  1  0  0  0  0
  9  8  1  0  0  0  0
  9 46  1  6  0  0  0
  9 10  1  0  0  0  0
 10  1  1  0  0  0  0
 10 22  1  1  0  0  0
 11  9  1  0  0  0  0
 11 50  1  1  0  0  0
 12 11  1  0  0  0  0
 12 21  1  6  0  0  0
 12 13  1  0  0  0  0
 13 51  1  0  0  0  0
 13 14  1  0  0  0  0
 14 10  1  0  0  0  0
 14 49  1  1  0  0  0
 15 11  1  0  0  0  0
 16 15  1  0  0  0  0
 16 52  1  1  0  0  0
 16 17  1  0  0  0  0
 17 12  1  0  0  0  0
 17 29  1  6  0  0  0
 17 24  1  0  0  0  0
 19 44  1  0  0  0  0
 19 42  1  0  0  0  0
 20 14  1  0  0  0  0
 21 57  1  0  0  0  0
 21 59  1  0  0  0  0
 23 16  1  0  0  0  0
 25 65  1  0  0  0  0
 25 66  1  0  0  0  0
 26 24  1  0  0  0  0
 26 25  1  0  0  0  0
 27 25  1  0  0  0  0
 27 63  1  0  0  0  0
 28 26  2  0  0  0  0
 29 33  1  0  0  0  0
 30 29  2  0  0  0  0
 31 73  2  0  0  0  0
 32 31  1  0  0  0  0
 32 33  1  0  0  0  0
 33 60  1  0  0  0  0
 34 68  1  0  0  0  0
 34 67  1  0  0  0  0
 35 31  1  0  0  0  0
 35 34  1  0  0  0  0
 36  3  1  0  0  0  0
 41  7  1  0  0  0  0
 43 19  1  0  0  0  0
 45  8  1  0  0  0  0
 47 15  1  0  0  0  0
 48 20  1  0  0  0  0
 53 13  1  0  0  0  0
 54 23  1  0  0  0  0
 55 23  1  0  0  0  0
 56 23  1  0  0  0  0
 58 21  1  0  0  0  0
 61 33  1  0  0  0  0
 62 27  1  0  0  0  0
 64 27  1  0  0  0  0
 69 34  1  0  0  0  0
 70 35  1  0  0  0  0
 71 35  1  0  0  0  0
 72 15  1  0  0  0  0
M  END