N12
  Mrv1674 09121610113D          

 54 57  0  0  0  0            999 V2000
    0.0000    0.0000    0.0000 O   0  0  0  0  0  0  0  0  0  0  0  0
    1.4232    0.0000    0.0000 C   0  0  1  0  0  0  0  0  0  0  0  0
    1.9902    0.0000    1.4581 C   0  0  2  0  0  0  0  0  0  0  0  0
    1.8023   -1.4828    1.8422 C   0  0  2  0  0  0  0  0  0  0  0  0
    2.4261   -1.7924    3.1886 C   0  0  1  0  0  0  0  0  0  0  0  0
    1.7003   -0.9498    4.2493 C   0  0  1  0  0  0  0  0  0  0  0  0
    2.2231   -1.2583    5.6729 C   0  0  1  0  0  0  0  0  0  0  0  0
    2.0591   -2.7439    5.8940 C   0  0  0  0  0  0  0  0  0  0  0  0
    1.3413   -3.2650    6.9024 C   0  0  0  0  0  0  0  0  0  0  0  0
    0.6226   -2.4351    7.8800 C   0  0  0  0  0  0  0  0  0  0  0  0
   -0.0264   -2.9262    8.8140 O   0  0  0  0  0  0  0  0  0  0  0  0
    3.6983   -0.9023    5.8734 C   0  0  0  0  0  0  0  0  0  0  0  0
    1.4393   -0.4563    6.6709 C   0  0  0  0  0  0  0  0  0  0  0  0
    0.7230   -0.9818    7.6703 C   0  0  0  0  0  0  0  0  0  0  0  0
    2.2893   -3.2771    3.4921 C   0  0  2  0  0  0  0  0  0  0  0  0
    2.7479   -3.6105    4.8969 C   0  0  1  0  0  0  0  0  0  0  0  0
    1.2193    0.8331    2.4646 C   0  0  2  0  0  0  0  0  0  0  0  0
    1.6494    0.5500    3.9100 C   0  0  2  0  0  0  0  0  0  0  0  0
    2.8997    1.1499    4.2203 O   0  0  0  0  0  0  0  0  0  0  0  0
    3.4477    0.4250    1.4110 C   0  0  0  0  0  0  0  0  0  0  0  0
    1.8360   -1.3790   -0.5718 C   0  0  2  0  0  0  0  0  0  0  0  0
    2.2648   -2.2510    0.6119 C   0  0  2  0  0  0  0  0  0  0  0  0
    1.8930    1.2138   -0.7890 C   0  0  0  0  0  0  0  0  0  0  0  0
    1.2894    2.2883   -0.6649 O   0  0  0  0  0  0  0  0  0  0  0  0
    3.0505    1.1056   -1.7496 C   0  0  2  0  0  0  0  0  0  0  0  0
    3.5693    2.3670   -2.1092 O   0  0  0  0  0  0  0  0  0  0  0  0
    1.2477   -4.3543    7.0438 H   0  0  0  0  0  0  0  0  0  0  0  0
    3.8246    0.2044    5.9595 H   0  0  0  0  0  0  0  0  0  0  0  0
    4.0773   -1.3790    6.8095 H   0  0  0  0  0  0  0  0  0  0  0  0
    4.3130   -1.2582    5.0143 H   0  0  0  0  0  0  0  0  0  0  0  0
    0.1780   -0.3531    8.3924 H   0  0  0  0  0  0  0  0  0  0  0  0
    1.5270    0.6368    6.5468 H   0  0  0  0  0  0  0  0  0  0  0  0
    0.6173   -1.2782    4.2395 H   0  0  0  0  0  0  0  0  0  0  0  0
    3.8577   -3.4532    4.9838 H   0  0  0  0  0  0  0  0  0  0  0  0
    2.5459   -4.6944    5.1071 H   0  0  0  0  0  0  0  0  0  0  0  0
    2.8982   -3.8597    2.7518 H   0  0  0  0  0  0  0  0  0  0  0  0
    1.2185   -3.5883    3.3655 H   0  0  0  0  0  0  0  0  0  0  0  0
    3.5167   -1.5221    3.1746 H   0  0  0  0  0  0  0  0  0  0  0  0
    0.6885   -1.6614    1.9335 H   0  0  0  0  0  0  0  0  0  0  0  0
    2.8933    2.0354    3.8360 H   0  0  0  0  0  0  0  0  0  0  0  0
    0.8690    1.0267    4.5792 H   0  0  0  0  0  0  0  0  0  0  0  0
    0.1243    0.5996    2.3809 H   0  0  0  0  0  0  0  0  0  0  0  0
    1.3557    1.9233    2.2398 H   0  0  0  0  0  0  0  0  0  0  0  0
    3.9163    0.3636    2.4238 H   0  0  0  0  0  0  0  0  0  0  0  0
    4.0253   -0.2352    0.7193 H   0  0  0  0  0  0  0  0  0  0  0  0
    3.5296    1.4819    1.0551 H   0  0  0  0  0  0  0  0  0  0  0  0
    1.7866   -3.2596    0.5636 H   0  0  0  0  0  0  0  0  0  0  0  0
    3.3733   -2.3972    0.6212 H   0  0  0  0  0  0  0  0  0  0  0  0
    2.6692   -1.2781   -1.3061 H   0  0  0  0  0  0  0  0  0  0  0  0
    0.9562   -1.8309   -1.0965 H   0  0  0  0  0  0  0  0  0  0  0  0
    2.8226    2.9670   -2.2504 H   0  0  0  0  0  0  0  0  0  0  0  0
    2.7014    0.5584   -2.6694 H   0  0  0  0  0  0  0  0  0  0  0  0
    3.9151    0.5583   -1.2845 H   0  0  0  0  0  0  0  0  0  0  0  0
   -0.2903    0.8851    0.2646 H   0  0  0  0  0  0  0  0  0  0  0  0
  1 54  1  0  0  0  0
  2  1  1  1  0  0  0
  2  3  1  0  0  0  0
  3 20  1  1  0  0  0
  3  4  1  0  0  0  0
  3 17  1  0  0  0  0
  4 39  1  1  0  0  0
  4  5  1  0  0  0  0
  5 38  1  6  0  0  0
  5 15  1  0  0  0  0
  5  6  1  0  0  0  0
  6 33  1  6  0  0  0
  6  7  1  0  0  0  0
  7 12  1  1  0  0  0
  7  8  1  0  0  0  0
  7 13  1  0  0  0  0
  8  9  2  0  0  0  0
  9 27  1  0  0  0  0
  9 10  1  0  0  0  0
 10 11  2  0  0  0  0
 12 28  1  0  0  0  0
 12 29  1  0  0  0  0
 13 14  2  0  0  0  0
 14 10  1  0  0  0  0
 14 31  1  0  0  0  0
 15 16  1  0  0  0  0
 16  8  1  0  0  0  0
 16 34  1  0  0  0  0
 16 35  1  0  0  0  0
 17 18  1  0  0  0  0
 18  6  1  0  0  0  0
 18 19  1  0  0  0  0
 18 41  1  1  0  0  0
 20 44  1  0  0  0  0
 21  2  1  0  0  0  0
 21 22  1  0  0  0  0
 22  4  1  0  0  0  0
 22 48  1  0  0  0  0
 23  2  1  0  0  0  0
 23 24  2  0  0  0  0
 25 23  1  0  0  0  0
 25 53  1  0  0  0  0
 26 25  1  0  0  0  0
 30 12  1  0  0  0  0
 32 13  1  0  0  0  0
 36 15  1  0  0  0  0
 37 15  1  0  0  0  0
 40 19  1  0  0  0  0
 42 17  1  0  0  0  0
 43 17  1  0  0  0  0
 45 20  1  0  0  0  0
 46 20  1  0  0  0  0
 47 22  1  0  0  0  0
 49 21  1  0  0  0  0
 50 21  1  0  0  0  0
 51 26  1  0  0  0  0
 52 25  1  0  0  0  0
M  END