N14
  Mrv1674 09121610113D          

 14 14  0  0  0  0            999 V2000
    0.0000    0.0000    0.0000 C   0  0  0  0  0  0  0  0  0  0  0  0
    1.4217    0.0000    0.0000 C   0  0  0  0  0  0  0  0  0  0  0  0
    2.1349    0.0000    1.1396 N   0  0  0  0  0  0  0  0  0  0  0  0
   -0.7094    0.0001    1.1448 N   0  0  0  0  0  0  0  0  0  0  0  0
    0.0000    0.0003    2.2916 C   0  0  0  0  0  0  0  0  0  0  0  0
    1.4250    0.0002    2.2962 C   0  0  0  0  0  0  0  0  0  0  0  0
    2.1050    0.0006    3.6381 C   0  0  0  0  0  0  0  0  0  0  0  0
    3.4698   -0.0096    3.7045 N   0  0  0  0  0  0  0  0  0  0  0  0
    1.4164    0.0094    4.6810 O   0  0  0  0  0  0  0  0  0  0  0  0
   -0.5733   -0.0001   -0.9426 H   0  0  0  0  0  0  0  0  0  0  0  0
    1.9961   -0.0001   -0.9418 H   0  0  0  0  0  0  0  0  0  0  0  0
   -0.5627    0.0009    3.2449 H   0  0  0  0  0  0  0  0  0  0  0  0
    4.0335   -0.0146    2.8937 H   0  0  0  0  0  0  0  0  0  0  0  0
    3.9057   -0.0082    4.5936 H   0  0  0  0  0  0  0  0  0  0  0  0
  1  2  2  0  0  0  0
  1  4  1  0  0  0  0
  2  3  1  0  0  0  0
  3  6  2  0  0  0  0
  4  5  2  0  0  0  0
  5  6  1  0  0  0  0
  5 12  1  0  0  0  0
  6  7  1  0  0  0  0
  7  8  1  0  0  0  0
  7  9  2  0  0  0  0
  8 14  1  0  0  0  0
 10  1  1  0  0  0  0
 11  2  1  0  0  0  0
 13  8  1  0  0  0  0
M  END