N4
  Mrv1674 09121610113D          

 57 60  0  0  0  0            999 V2000
    0.0000    0.0000    0.0000 Cl  0  0  0  0  0  0  0  0  0  0  0  0
    1.7102    0.0000    0.0000 C   0  0  0  0  0  0  0  0  0  0  0  0
    2.3548    0.0000    1.1813 C   0  0  0  0  0  0  0  0  0  0  0  0
    3.8355    0.0547    1.2732 C   0  0  1  0  0  0  0  0  0  0  0  0
    4.3825   -0.7835    2.4116 C   0  0  1  0  0  0  0  0  0  0  0  0
    5.9113   -0.5943    2.5394 C   0  0  1  0  0  0  0  0  0  0  0  0
    6.1996   -1.4003    3.8491 C   0  0  1  0  0  0  0  0  0  0  0  0
    6.1954   -2.7904    3.4570 O   0  0  0  0  0  0  0  0  0  0  0  0
    6.4765   -3.7459    4.3959 C   0  0  0  0  0  0  0  0  0  0  0  0
    6.6965   -3.3970    5.5578 O   0  0  0  0  0  0  0  0  0  0  0  0
    6.4735   -5.1220    3.8261 C   0  0  0  0  0  0  0  0  0  0  0  0
    7.5676   -1.0614    4.4355 C   0  0  0  0  0  0  0  0  0  0  0  0
    8.5905   -1.4067    3.8345 O   0  0  0  0  0  0  0  0  0  0  0  0
    7.6317   -0.3315    5.7355 C   0  0  0  0  0  0  0  0  0  0  0  0
    6.5601   -1.1108    1.2670 C   0  0  2  0  0  0  0  0  0  0  0  0
    6.3253    0.8480    2.7935 C   0  0  0  0  0  0  0  0  0  0  0  0
    3.8569   -0.5779    3.8246 C   0  0  2  0  0  0  0  0  0  0  0  0
    4.9672   -1.1090    4.7377 C   0  0  2  0  0  0  0  0  0  0  0  0
    4.4789   -0.4535   -0.0276 C   0  0  2  0  0  0  0  0  0  0  0  0
    5.9993   -0.4007    0.0436 C   0  0  1  0  0  0  0  0  0  0  0  0
    2.3974   -0.0028   -1.2915 C   0  0  0  0  0  0  0  0  0  0  0  0
    3.8848    0.2864   -1.2441 C   0  0  2  0  0  0  0  0  0  0  0  0
    4.5713   -0.2326   -2.5125 C   0  0  2  0  0  0  0  0  0  0  0  0
    3.8538    0.1425   -3.7877 C   0  0  2  0  0  0  0  0  0  0  0  0
    4.0813    1.7953   -1.1430 C   0  0  0  0  0  0  0  0  0  0  0  0
    1.7514   -0.2494   -2.4467 C   0  0  0  0  0  0  0  0  0  0  0  0
    2.4095   -0.2637   -3.7609 C   0  0  0  0  0  0  0  0  0  0  0  0
    1.7992   -0.5738   -4.7913 O   0  0  0  0  0  0  0  0  0  0  0  0
    7.5336   -5.4592    3.7097 H   0  0  0  0  0  0  0  0  0  0  0  0
    5.9710   -5.1420    2.8294 H   0  0  0  0  0  0  0  0  0  0  0  0
    5.9448   -5.8082    4.5314 H   0  0  0  0  0  0  0  0  0  0  0  0
    7.1448   -0.9571    6.5261 H   0  0  0  0  0  0  0  0  0  0  0  0
    8.6961   -0.1498    6.0248 H   0  0  0  0  0  0  0  0  0  0  0  0
    7.1062    0.6510    5.6571 H   0  0  0  0  0  0  0  0  0  0  0  0
    6.3774   -2.2143    1.1794 H   0  0  0  0  0  0  0  0  0  0  0  0
    7.6696   -0.9569    1.3214 H   0  0  0  0  0  0  0  0  0  0  0  0
    6.0621    1.5011    1.9279 H   0  0  0  0  0  0  0  0  0  0  0  0
    5.8195    1.2496    3.7050 H   0  0  0  0  0  0  0  0  0  0  0  0
    7.4325    0.9049    2.9413 H   0  0  0  0  0  0  0  0  0  0  0  0
    5.2077   -0.3536    5.5234 H   0  0  0  0  0  0  0  0  0  0  0  0
    4.6481   -2.0488    5.2532 H   0  0  0  0  0  0  0  0  0  0  0  0
    2.9028   -1.1362    3.9872 H   0  0  0  0  0  0  0  0  0  0  0  0
    3.6586    0.5038    4.0269 H   0  0  0  0  0  0  0  0  0  0  0  0
    4.2041   -1.8689    2.1497 H   0  0  0  0  0  0  0  0  0  0  0  0
    6.3463    0.6651    0.0340 H   0  0  0  0  0  0  0  0  0  0  0  0
    6.4269   -0.8976   -0.8678 H   0  0  0  0  0  0  0  0  0  0  0  0
    4.1911   -1.5404   -0.1409 H   0  0  0  0  0  0  0  0  0  0  0  0
    4.1176    1.1356    1.4380 H   0  0  0  0  0  0  0  0  0  0  0  0
    1.8120   -0.0140    2.1406 H   0  0  0  0  0  0  0  0  0  0  0  0
    4.3641   -0.3402   -4.6636 H   0  0  0  0  0  0  0  0  0  0  0  0
    3.8942    1.2535   -3.9515 H   0  0  0  0  0  0  0  0  0  0  0  0
    4.6505   -1.3507   -2.4523 H   0  0  0  0  0  0  0  0  0  0  0  0
    5.6138    0.1815   -2.5527 H   0  0  0  0  0  0  0  0  0  0  0  0
    3.7363    2.2927   -2.0815 H   0  0  0  0  0  0  0  0  0  0  0  0
    3.4914    2.2138   -0.2925 H   0  0  0  0  0  0  0  0  0  0  0  0
    5.1596    2.0376   -0.9888 H   0  0  0  0  0  0  0  0  0  0  0  0
    0.6682   -0.4629   -2.4735 H   0  0  0  0  0  0  0  0  0  0  0  0
  1  2  1  0  0  0  0
  2  3  2  0  0  0  0
  3  4  1  0  0  0  0
  3 49  1  0  0  0  0
  4 48  1  1  0  0  0
  4  5  1  0  0  0  0
  5 44  1  6  0  0  0
  5  6  1  0  0  0  0
  5 17  1  0  0  0  0
  6 16  1  1  0  0  0
  6  7  1  0  0  0  0
  7  8  1  6  0  0  0
  7 12  1  0  0  0  0
  7 18  1  0  0  0  0
  8  9  1  0  0  0  0
  9 10  2  0  0  0  0
 11  9  1  0  0  0  0
 11 31  1  0  0  0  0
 12 14  1  0  0  0  0
 13 12  2  0  0  0  0
 14 33  1  0  0  0  0
 14 32  1  0  0  0  0
 15  6  1  0  0  0  0
 15 36  1  0  0  0  0
 16 39  1  0  0  0  0
 16 38  1  0  0  0  0
 17 42  1  0  0  0  0
 17 43  1  0  0  0  0
 17 18  1  0  0  0  0
 18 41  1  0  0  0  0
 18 40  1  0  0  0  0
 19  4  1  0  0  0  0
 19 47  1  6  0  0  0
 19 20  1  0  0  0  0
 20 15  1  0  0  0  0
 21  2  1  0  0  0  0
 21 22  1  0  0  0  0
 22 19  1  0  0  0  0
 22 25  1  1  0  0  0
 23 22  1  0  0  0  0
 23 52  1  0  0  0  0
 24 23  1  0  0  0  0
 24 27  1  0  0  0  0
 25 56  1  0  0  0  0
 25 55  1  0  0  0  0
 26 21  2  0  0  0  0
 27 26  1  0  0  0  0
 28 27  2  0  0  0  0
 29 11  1  0  0  0  0
 30 11  1  0  0  0  0
 34 14  1  0  0  0  0
 35 15  1  0  0  0  0
 37 16  1  0  0  0  0
 45 20  1  0  0  0  0
 46 20  1  0  0  0  0
 50 24  1  0  0  0  0
 51 24  1  0  0  0  0
 53 23  1  0  0  0  0
 54 25  1  0  0  0  0
 57 26  1  0  0  0  0
M  END