N9
  Mrv1674 09121610113D          

 43 44  0  0  0  0            999 V2000
    0.0000    0.0000    0.0000 O   0  0  0  0  0  0  0  0  0  0  0  0
    1.3672    0.0000    0.0000 C   0  0  0  0  0  0  0  0  0  0  0  0
    1.9458    0.0000    1.0919 O   0  0  0  0  0  0  0  0  0  0  0  0
    1.9460    0.0080   -1.3514 C   0  0  0  0  0  0  0  0  0  0  0  0
    1.4164   -1.0249   -2.3037 C   0  0  1  0  0  0  0  0  0  0  0  0
    1.7463   -0.6761   -3.7318 C   0  0  0  0  0  0  0  0  0  0  0  0
    0.9319   -1.3834   -4.7176 C   0  0  0  0  0  0  0  0  0  0  0  0
    1.2901   -1.2219   -6.0352 O   0  0  0  0  0  0  0  0  0  0  0  0
    0.4971   -1.9228   -6.9960 C   0  0  0  0  0  0  0  0  0  0  0  0
   -0.0446   -2.1082   -4.4961 O   0  0  0  0  0  0  0  0  0  0  0  0
    1.9807   -2.3859   -1.9681 C   0  0  0  0  0  0  0  0  0  0  0  0
    1.2093   -3.5532   -1.8168 C   0  0  0  0  0  0  0  0  0  0  0  0
   -0.2814   -3.5687   -1.9107 N   0  3  0  0  0  0  0  0  0  0  0  0
   -0.8045   -4.5300   -2.4078 O   0  0  0  0  0  0  0  0  0  0  0  0
   -0.9208   -2.6689   -1.4397 O   0  5  0  0  0  0  0  0  0  0  0  0
    1.8230   -4.7964   -1.5641 C   0  0  0  0  0  0  0  0  0  0  0  0
    3.2033   -4.8771   -1.4296 C   0  0  0  0  0  0  0  0  0  0  0  0
    3.3734   -2.5051   -1.8282 C   0  0  0  0  0  0  0  0  0  0  0  0
    3.9806   -3.7256   -1.5570 C   0  0  0  0  0  0  0  0  0  0  0  0
    2.8925    0.9197   -1.7183 C   0  0  0  0  0  0  0  0  0  0  0  0
    3.3729    0.9403   -3.0324 N   0  0  0  0  0  0  0  0  0  0  0  0
    2.7042    0.2531   -4.0428 C   0  0  0  0  0  0  0  0  0  0  0  0
    3.0928    0.5750   -5.4507 C   0  0  0  0  0  0  0  0  0  0  0  0
    3.4632    1.9422   -0.7876 C   0  0  0  0  0  0  0  0  0  0  0  0
   -0.6410   -0.1012    1.2729 C   0  0  0  0  0  0  0  0  0  0  0  0
    0.5506   -3.0215   -6.8055 H   0  0  0  0  0  0  0  0  0  0  0  0
    0.9673   -1.6510   -7.9726 H   0  0  0  0  0  0  0  0  0  0  0  0
   -0.5630   -1.5772   -6.9395 H   0  0  0  0  0  0  0  0  0  0  0  0
    3.6772   -5.8485   -1.2242 H   0  0  0  0  0  0  0  0  0  0  0  0
    1.2061   -5.7077   -1.4785 H   0  0  0  0  0  0  0  0  0  0  0  0
    5.0739   -3.7829   -1.4451 H   0  0  0  0  0  0  0  0  0  0  0  0
    3.9929   -1.6002   -1.9334 H   0  0  0  0  0  0  0  0  0  0  0  0
    0.2872   -1.0317   -2.2003 H   0  0  0  0  0  0  0  0  0  0  0  0
    3.4676   -0.3551   -5.9498 H   0  0  0  0  0  0  0  0  0  0  0  0
    3.8840    1.3608   -5.5211 H   0  0  0  0  0  0  0  0  0  0  0  0
    2.1887    0.9259   -6.0114 H   0  0  0  0  0  0  0  0  0  0  0  0
    3.9875    1.6790   -3.2903 H   0  0  0  0  0  0  0  0  0  0  0  0
    4.5801    1.9610   -0.8512 H   0  0  0  0  0  0  0  0  0  0  0  0
    3.1827    1.7093    0.2704 H   0  0  0  0  0  0  0  0  0  0  0  0
    3.0725    2.9578   -1.0478 H   0  0  0  0  0  0  0  0  0  0  0  0
   -0.2973   -1.0207    1.8043 H   0  0  0  0  0  0  0  0  0  0  0  0
   -1.7265   -0.1607    1.0115 H   0  0  0  0  0  0  0  0  0  0  0  0
   -0.4115    0.8043    1.8841 H   0  0  0  0  0  0  0  0  0  0  0  0
  1 25  1  0  0  0  0
  2  1  1  0  0  0  0
  2  3  2  0  0  0  0
  4  2  1  0  0  0  0
  5  4  1  0  0  0  0
  5 33  1  1  0  0  0
  5 11  1  0  0  0  0
  6  5  1  0  0  0  0
  7  6  1  0  0  0  0
  7 10  2  0  0  0  0
  8  7  1  0  0  0  0
  9  8  1  0  0  0  0
  9 28  1  0  0  0  0
  9 26  1  0  0  0  0
 11 18  2  0  0  0  0
 11 12  1  0  0  0  0
 12 16  2  0  0  0  0
 13 12  1  0  0  0  0
 13 15  1  0  0  0  0
 14 13  2  0  0  0  0
 16 30  1  0  0  0  0
 16 17  1  0  0  0  0
 17 29  1  0  0  0  0
 18 19  1  0  0  0  0
 19 17  2  0  0  0  0
 19 31  1  0  0  0  0
 20  4  2  0  0  0  0
 20 24  1  0  0  0  0
 21 20  1  0  0  0  0
 22  6  2  0  0  0  0
 22 21  1  0  0  0  0
 23 22  1  0  0  0  0
 24 39  1  0  0  0  0
 25 41  1  0  0  0  0
 25 43  1  0  0  0  0
 27  9  1  0  0  0  0
 32 18  1  0  0  0  0
 34 23  1  0  0  0  0
 35 23  1  0  0  0  0
 36 23  1  0  0  0  0
 37 21  1  0  0  0  0
 38 24  1  0  0  0  0
 40 24  1  0  0  0  0
 42 25  1  0  0  0  0
M  CHG  2  13   1  15  -1
M  END