parathion
  SciTegic01221516373D

 18 18  0  0  0  0            999 V2000
   -0.4008   -0.0901   -0.0261 C   0  0  0  0  0  0  0  0  0  1  0  0
    0.2146    1.1214   -0.3279 C   0  0  0  0  0  0  0  0  0  2  0  0
   -0.4111    2.3710   -0.0840 O   0  0  0  0  0  0  0  0  0  3  0  0
   -1.8529    2.3029    0.5439 P   0  0  0  0  0  0  0  0  0  4  0  0
   -2.9325    1.5344   -0.5397 S   0  0  0  0  0  0  0  0  0  5  0  0
   -2.3274    3.7877    0.7331 O   0  0  0  0  0  0  0  0  0  6  0  0
   -1.2739    4.6467    1.2593 C   0  0  0  0  0  0  0  0  0  7  0  0
   -0.8358    4.2658    2.6896 C   0  0  0  0  0  0  0  0  0  8  0  0
   -1.8322    1.5045    1.9062 O   0  0  0  0  0  0  0  0  0  9  0  0
   -3.1652    1.1189    2.3578 C   0  0  0  0  0  0  0  0  0 10  0  0
   -4.0418    2.3223    2.7663 C   0  0  0  0  0  0  0  0  0 11  0  0
    1.4888    1.1169   -0.8850 C   0  0  0  0  0  0  0  0  0 12  0  0
    2.1421   -0.0836   -1.1393 C   0  0  0  0  0  0  0  0  0 13  0  0
    1.5216   -1.2892   -0.8358 C   0  0  0  0  0  0  0  0  0 14  0  0
    0.2487   -1.2926   -0.2786 C   0  0  0  0  0  0  0  0  0 15  0  0
    2.1753   -2.4933   -1.0893 N   0  3  0  0  0  0  0  0  0 16  0  0
    1.5831   -3.6415   -0.7989 O   0  0  0  0  0  0  0  0  0 17  0  0
    3.3887   -2.4882   -1.6197 O   0  5  0  0  0  0  0  0  0 18  0  0
 16 18  1  0
 16 17  2  0
 14 16  1  0
 15  1  4  0
 14 15  4  0
 13 14  4  0
 12 13  4  0
  2 12  4  0
 10 11  1  0
  9 10  1  0
  4  9  1  0
  7  8  1  0
  6  7  1  0
  4  6  1  0
  4  5  2  0
  3  4  1  0
  2  3  1  0
  1  2  4  0
M CHG   2  16   1  18  -1
M  END