gamma-hexachlorocyclohexane
  SciTegic01221516373D

 18 18  0  0  0  0            999 V2000
   -0.6027    0.2290    0.3437 C   0  0  0  0  0  0  0  0  0  1  0  0
   -0.8151    1.0190   -0.3898 H   0  0  0  0  0  0  0  0  0  2  0  0
   -0.1716    0.7613    1.8530 C   0  0  0  0  0  0  0  0  0  3  0  0
   -0.1489   -0.0443    2.5993 H   0  0  0  0  0  0  0  0  0  4  0  0
    1.3516    1.4267    1.9893 C   0  0  0  0  0  0  0  0  0  5  0  0
    1.3907    2.0059    2.9221 H   0  0  0  0  0  0  0  0  0  6  0  0
    1.5131    2.1436    0.7508 C   0  0  0  0  0  0  0  0  0  7  0  0
    2.4261    2.7446    0.6391 H   0  0  0  0  0  0  0  0  0  8  0  0
    1.5793    0.9076   -0.3460 C   0  0  0  0  0  0  0  0  0  9  0  0
    2.5632    0.4217   -0.3825 H   0  0  0  0  0  0  0  0  0 10  0  0
    0.5640   -0.3755   -0.0926 C   0  0  0  0  0  0  0  0  0 11  0  0
    0.8504   -1.0344    0.7406 H   0  0  0  0  0  0  0  0  0 12  0  0
    0.4910   -1.3054   -1.5909 Cl  0  0  0  0  0  0  0  0  0 13  0  0
    1.2858    1.7307   -1.8808 Cl  0  0  0  0  0  0  0  0  0 14  0  0
    0.1373    3.2517    0.5558 Cl  0  0  0  0  0  0  0  0  0 15  0  0
    2.6972    0.2527    2.0280 Cl  0  0  0  0  0  0  0  0  0 16  0  0
   -1.5013    1.8590    2.2837 Cl  0  0  0  0  0  0  0  0  0 17  0  0
   -2.0178   -0.8092    0.5292 Cl  0  0  0  0  0  0  0  0  0 18  0  0
  1 18  1  0
  3 17  1  0
  5 16  1  0
  7 15  1  0
  9 14  1  0
 11 13  1  0
 11  1  1  0
 11 12  1  0
  9 11  1  0
  9 10  1  0
  7  9  1  0
  7  8  1  0
  5  7  1  0
  5  6  1  0
  3  5  1  0
  3  4  1  0
  1  3  1  0
  1  2  1  0
M  END