acetamide
  SciTegic01221516373D

  4  3  0  0  0  0            999 V2000
   -0.2900    0.0012   -0.0241 O   0  0  0  0  0  0  0  0  0  1  0  0
    0.9462    0.0009   -0.0241 C   0  0  0  0  0  0  0  0  0  2  0  0
    1.6970   -0.0002    1.2762 C   0  0  0  0  0  0  0  0  0  3  0  0
    1.6444    0.0016   -1.2336 N   0  0  0  0  0  0  0  0  0  4  0  0
  2  4  1  0
  2  3  1  0
  1  2  2  0
M  END