ethanethioamide
  SciTegic01221516373D

  4  3  0  0  0  0            999 V2000
    1.4958   -0.0368    0.0027 C   0  0  0  0  0  0  0  0  0  1  0  0
   -0.0057   -0.0360    0.0013 C   0  0  0  0  0  0  0  0  0  2  0  0
   -0.7874    1.3195   -0.0001 S   0  0  0  0  0  0  0  0  0  3  0  0
   -0.7045   -1.2451    0.0012 N   0  0  0  0  0  0  0  0  0  4  0  0
  2  4  1  0
  2  3  2  0
  1  2  1  0
M  END