1-naphthalenol, methylcarbamate
  SciTegic01221516373D

 15 16  0  0  0  0            999 V2000
    2.1305    2.9828    3.8650 C   0  0  0  0  0  0  0  0  0  1  0  0
    1.6633    3.6288    2.6725 N   0  0  0  0  0  0  0  0  0  2  0  0
    1.1614    2.8655    1.6183 C   0  0  0  0  0  0  0  0  0  3  0  0
    0.7736    3.4600    0.6158 O   0  0  0  0  0  0  0  0  0  4  0  0
    1.1295    1.4357    1.7840 O   0  0  0  0  0  0  0  0  0  5  0  0
    0.6606    0.3951    0.8339 C   0  0  0  0  0  0  0  0  0  6  0  0
    0.7778   -0.8846    1.3697 C   0  0  0  0  0  0  0  0  0  7  0  0
    0.4027   -2.0202    0.6689 C   0  0  0  0  0  0  0  0  0  8  0  0
   -0.1072   -1.8889   -0.6105 C   0  0  0  0  0  0  0  0  0  9  0  0
   -0.2364   -0.6282   -1.1748 C   0  0  0  0  0  0  0  0  0 10  0  0
   -0.7527   -0.5453   -2.4640 C   0  0  0  0  0  0  0  0  0 11  0  0
   -0.9072    0.6839   -3.0872 C   0  0  0  0  0  0  0  0  0 12  0  0
   -0.5394    1.8344   -2.4074 C   0  0  0  0  0  0  0  0  0 13  0  0
   -0.0250    1.7408   -1.1203 C   0  0  0  0  0  0  0  0  0 14  0  0
    0.1401    0.5217   -0.4721 C   0  0  0  0  0  0  0  0  0 15  0  0
 15 10  4  0
 15  6  4  0
 14 15  4  0
 13 14  4  0
 12 13  4  0
 11 12  4  0
 10 11  4  0
  9 10  4  0
  8  9  4  0
  7  8  4  0
  6  7  4  0
  5  6  1  0
  3  5  1  0
  3  4  2  0
  2  3  1  0
  1  2  1  0
M  END