acetic acid
  SciTegic01221516373D

  4  3  0  0  0  0            999 V2000
    1.3863    0.0572    0.0017 O   0  0  0  0  0  0  0  0  0  1  0  0
   -0.0052    0.0562   -0.0005 C   0  0  0  0  0  0  0  0  0  2  0  0
   -0.6241    1.1264   -0.0011 O   0  0  0  0  0  0  0  0  0  3  0  0
   -0.7550   -1.2447   -0.0020 C   0  0  0  0  0  0  0  0  0  4  0  0
  2  4  1  0
  2  3  2  0
  1  2  1  0
M  END