methane, trichloro-
  SciTegic01221516373D

  4  3  0  0  0  0            999 V2000
   -0.0632   -0.0904   -0.1556 C   0  0  0  0  0  0  0  0  0  1  0  0
    1.7038   -0.0924   -0.1596 Cl  0  0  0  0  0  0  0  0  0  2  0  0
   -0.6511    1.5760   -0.1550 Cl  0  0  0  0  0  0  0  0  0  3  0  0
   -0.6508   -0.9237    1.2876 Cl  0  0  0  0  0  0  0  0  0  4  0  0
  1  4  1  0
  1  3  1  0
  1  2  1  0
M  END