ethane, hexachloro-
  SciTegic01221516373D

  8  7  0  0  0  0            999 V2000
   -0.6483    0.7020   -0.5571 Cl  0  0  0  0  0  0  0  0  0  1  0  0
    0.9079    0.2211    0.1268 C   0  0  0  0  0  0  0  0  0  2  0  0
    0.7135   -0.1307    1.8469 Cl  0  0  0  0  0  0  0  0  0  3  0  0
    2.0739    1.5318   -0.0798 Cl  0  0  0  0  0  0  0  0  0  4  0  0
    1.4179   -1.0357   -0.5975 C   0  0  0  0  0  0  0  0  0  5  0  0
    2.9740   -1.5166    0.0864 Cl  0  0  0  0  0  0  0  0  0  6  0  0
    1.6123   -0.6840   -2.3176 Cl  0  0  0  0  0  0  0  0  0  7  0  0
    0.2519   -2.3464   -0.3909 Cl  0  0  0  0  0  0  0  0  0  8  0  0
  5  8  1  0
  5  7  1  0
  5  6  1  0
  2  5  1  0
  2  4  1  0
  2  3  1  0
  1  2  1  0
M  END