1-propanol
  SciTegic01221516373D

  4  3  0  0  0  0            999 V2000
   -0.3717    0.1834   -0.5250 C   0  0  0  0  0  0  0  0  0  1  0  0
    1.0700   -0.2740   -0.2364 C   0  0  0  0  0  0  0  0  0  2  0  0
    1.5238    0.2870    1.1238 C   0  0  0  0  0  0  0  0  0  3  0  0
    0.6545   -0.1946    2.1518 O   0  0  0  0  0  0  0  0  0  4  0  0
  3  4  1  0
  2  3  1  0
  1  2  1  0
M  END