1-butanol
  SciTegic01221516373D

  5  4  0  0  0  0            999 V2000
    0.1009    0.0829   -0.9776 O   0  0  0  0  0  0  0  0  0  1  0  0
    1.3613   -0.2545   -0.3889 C   0  0  0  0  0  0  0  0  0  2  0  0
    1.5228    0.3413    1.0435 C   0  0  0  0  0  0  0  0  0  3  0  0
    0.5323   -0.2736    2.0807 C   0  0  0  0  0  0  0  0  0  4  0  0
   -0.9371    0.1027    1.7913 C   0  0  0  0  0  0  0  0  0  5  0  0
  4  5  1  0
  3  4  1  0
  2  3  1  0
  1  2  1  0
M  END