1-pentanol
  SciTegic01221516373D

  6  5  0  0  0  0            999 V2000
    0.6672   -0.6660   -1.2511 C   0  0  0  0  0  0  0  0  0  1  0  0
    1.7223    0.0514   -0.3731 C   0  0  0  0  0  0  0  0  0  2  0  0
    1.6869   -0.3892    1.1329 C   0  0  0  0  0  0  0  0  0  3  0  0
    0.6228    0.3173    2.0726 C   0  0  0  0  0  0  0  0  0  4  0  0
   -0.8830    0.0367    1.7856 C   0  0  0  0  0  0  0  0  0  5  0  0
   -1.3095    0.6612    0.5744 O   0  0  0  0  0  0  0  0  0  6  0  0
  5  6  1  0
  4  5  1  0
  3  4  1  0
  2  3  1  0
  1  2  1  0
M  END