benzene
  SciTegic01221516373D

  6  6  0  0  0  0            999 V2000
   -0.8905    0.8654    0.0015 C   0  0  0  0  0  0  0  0  0  1  0  0
   -0.1957    2.0699   -0.0006 C   0  0  0  0  0  0  0  0  0  2  0  0
    1.1947    2.0704   -0.0019 C   0  0  0  0  0  0  0  0  0  3  0  0
    1.8904    0.8665   -0.0010 C   0  0  0  0  0  0  0  0  0  4  0  0
    1.1957   -0.3380    0.0011 C   0  0  0  0  0  0  0  0  0  5  0  0
   -0.1948   -0.3385    0.0023 C   0  0  0  0  0  0  0  0  0  6  0  0
  6  1  4  0
  5  6  4  0
  4  5  4  0
  3  4  4  0
  2  3  4  0
  1  2  4  0
M  END