methoxychlor
  SciTegic01221516373D

 21 22  0  0  0  0            999 V2000
    0.5998    3.4918    2.9562 Cl  0  0  0  0  0  0  0  0  0  1  0  0
   -0.3111    2.0071    2.6345 C   0  0  0  0  0  0  0  0  0  2  0  0
   -0.4486    1.7264    1.0737 C   0  0  0  0  0  0  0  0  0  3  0  0
   -1.3469    0.5013    0.7221 C   0  0  0  0  0  0  0  0  0  4  0  0
   -1.6408    0.2187   -0.6111 C   0  0  0  0  0  0  0  0  0  5  0  0
   -2.4553   -0.8558   -0.9484 C   0  0  0  0  0  0  0  0  0  6  0  0
   -2.9965   -1.6612    0.0478 C   0  0  0  0  0  0  0  0  0  7  0  0
   -3.8214   -2.7529   -0.2723 O   0  0  0  0  0  0  0  0  0  8  0  0
   -3.9908   -2.8809   -1.6923 C   0  0  0  0  0  0  0  0  0  9  0  0
   -2.7189   -1.3801    1.3798 C   0  0  0  0  0  0  0  0  0 10  0  0
   -1.9033   -0.3045    1.7118 C   0  0  0  0  0  0  0  0  0 11  0  0
    0.9445    1.6276    0.3877 C   0  0  0  0  0  0  0  0  0 12  0  0
    1.7602    2.7515    0.3008 C   0  0  0  0  0  0  0  0  0 13  0  0
    3.0088    2.6802   -0.3063 C   0  0  0  0  0  0  0  0  0 14  0  0
    3.4610    1.4759   -0.8348 C   0  0  0  0  0  0  0  0  0 15  0  0
    4.7191    1.3826   -1.4536 O   0  0  0  0  0  0  0  0  0 16  0  0
    5.3994    2.6466   -1.4479 C   0  0  0  0  0  0  0  0  0 17  0  0
    2.6555    0.3475   -0.7496 C   0  0  0  0  0  0  0  0  0 18  0  0
    1.4078    0.4253   -0.1425 C   0  0  0  0  0  0  0  0  0 19  0  0
   -1.9105    2.2323    3.3697 Cl  0  0  0  0  0  0  0  0  0 20  0  0
    0.5289    0.6625    3.4267 Cl  0  0  0  0  0  0  0  0  0 21  0  0
  2 21  1  0
  2 20  1  0
 19 12  4  0
 18 19  4  0
 15 18  4  0
 16 17  1  0
 15 16  1  0
 14 15  4  0
 13 14  4  0
 12 13  4  0
  3 12  1  0
 11  4  4  0
 10 11  4  0
  7 10  4  0
  8  9  1  0
  7  8  1  0
  6  7  4  0
  5  6  4  0
  4  5  4  0
  3  4  1  0
  2  3  1  0
  1  2  1  0
M  END