p,p' - DDE
  SciTegic01221516373D

 18 19  0  0  0  0            999 V2000
   -1.1872    2.9115    3.2264 Cl  0  0  0  0  0  0  0  0  0  1  0  0
   -0.1698    1.7285    2.4528 C   0  0  0  0  0  0  0  0  0  2  0  0
    0.0162    1.6398    1.0842 C   0  0  0  0  0  0  0  0  0  3  0  0
   -0.7209    2.6851    0.1017 C   0  0  0  0  0  0  0  0  0  4  0  0
   -1.4383    3.7732    0.5933 C   0  0  0  0  0  0  0  0  0  5  0  0
   -2.0824    4.6830   -0.2377 C   0  0  0  0  0  0  0  0  0  6  0  0
   -2.0255    4.5228   -1.6134 C   0  0  0  0  0  0  0  0  0  7  0  0
   -1.3219    3.4501   -2.1392 C   0  0  0  0  0  0  0  0  0  8  0  0
   -0.6859    2.5550   -1.2873 C   0  0  0  0  0  0  0  0  0  9  0  0
   -2.8212    5.6445   -2.6592 Cl  0  0  0  0  0  0  0  0  0 10  0  0
    0.9701    0.4918    0.4730 C   0  0  0  0  0  0  0  0  0 11  0  0
    1.3007    0.4400   -0.8818 C   0  0  0  0  0  0  0  0  0 12  0  0
    2.1257   -0.5436   -1.4140 C   0  0  0  0  0  0  0  0  0 13  0  0
    2.6544   -1.5230   -0.5874 C   0  0  0  0  0  0  0  0  0 14  0  0
    2.3483   -1.5023    0.7644 C   0  0  0  0  0  0  0  0  0 15  0  0
    1.5209   -0.5072    1.2725 C   0  0  0  0  0  0  0  0  0 16  0  0
    3.6818   -2.7526   -1.2338 Cl  0  0  0  0  0  0  0  0  0 17  0  0
    0.5839    0.6700    3.6125 Cl  0  0  0  0  0  0  0  0  0 18  0  0
  2 18  1  0
 14 17  1  0
 16 11  4  0
 15 16  4  0
 14 15  4  0
 13 14  4  0
 12 13  4  0
 11 12  4  0
  3 11  1  0
  7 10  1  0
  9  4  4  0
  8  9  4  0
  7  8  4  0
  6  7  4  0
  5  6  4  0
  4  5  4  0
  3  4  1  0
  2  3  2  0
  1  2  1  0
M  END