methane, bromochloro-
  SciTegic01221516373D

  3  2  0  0  0  0            999 V2000
   -0.1421   -0.2999   -0.0004 C   0  0  0  0  0  0  0  0  0  1  0  0
    1.6248   -0.2798    0.0001 Cl  0  0  0  0  0  0  0  0  0  2  0  0
   -0.8104    1.5213    0.0003 Br  0  0  0  0  0  0  0  0  0  3  0  0
  1  3  1  0
  1  2  1  0
M  END