propanoic acid, 2,2-dichloro-
  SciTegic01221516373D

  7  6  0  0  0  0            999 V2000
    1.6856    1.5274    0.0010 C   0  0  0  0  0  0  0  0  0  1  0  0
    1.1593    0.0802    0.0009 C   0  0  0  0  0  0  0  0  0  2  0  0
   -0.3412    0.0545    0.0001 C   0  0  0  0  0  0  0  0  0  3  0  0
   -0.9780    1.1140   -0.0002 O   0  0  0  0  0  0  0  0  0  4  0  0
   -1.0149   -1.1624   -0.0002 O   0  0  0  0  0  0  0  0  0  5  0  0
    1.7424   -0.8027    1.4157 Cl  0  0  0  0  0  0  0  0  0  6  0  0
    1.7438   -0.8031   -1.4131 Cl  0  0  0  0  0  0  0  0  0  7  0  0
  2  7  1  0
  2  6  1  0
  3  5  1  0
  3  4  2  0
  2  3  1  0
  1  2  1  0
M  END