1-propanol, 2-methyl-
  SciTegic01221516373D

  5  4  0  0  0  0            999 V2000
   -0.3537   -0.1272   -0.2403 C   0  0  0  0  0  0  0  0  0  1  0  0
    1.1760   -0.1768   -0.0746 C   0  0  0  0  0  0  0  0  0  2  0  0
    1.5356   -0.0285    1.4153 C   0  0  0  0  0  0  0  0  0  3  0  0
    1.8160    0.9730   -0.8742 C   0  0  0  0  0  0  0  0  0  4  0  0
   -0.8445    1.1241    0.2469 O   0  0  0  0  0  0  0  0  0  5  0  0
  1  5  1  0
  2  4  1  0
  2  3  1  0
  1  2  1  0
M  END