propane, 1,2-dichloro-
  SciTegic01221516373D

  6  5  0  0  0  0            999 V2000
   -0.8506    1.3933   -0.3514 C   0  0  0  0  0  0  0  0  0  1  0  0
   -0.6228    1.9610   -2.0087 Cl  0  0  0  0  0  0  0  0  0  2  0  0
   -0.1754    0.0200   -0.1828 C   0  0  1  0  0  0  0  0  0  3  0  0
    0.8999    0.1120   -0.3951 H   0  0  0  0  0  0  0  0  0  4  0  0
   -0.4025   -0.5487    1.4746 Cl  0  0  0  0  0  0  0  0  0  5  0  0
   -0.8077   -0.9861   -1.1623 C   0  0  0  0  0  0  0  0  0  6  0  0
  3  6  1  0
  3  5  1  0
  3  4  1  0
  1  3  1  0
  1  2  1  0
M  END