2-butanone
  SciTegic01221516373D

  5  4  0  0  0  0            999 V2000
    1.8629    1.3824   -0.0017 C   0  0  0  0  0  0  0  0  0  1  0  0
    1.3354   -0.0643   -0.0011 C   0  0  0  0  0  0  0  0  0  2  0  0
   -0.1662   -0.0513    0.0002 C   0  0  0  0  0  0  0  0  0  3  0  0
   -0.7756    1.0244    0.0006 O   0  0  0  0  0  0  0  0  0  4  0  0
   -0.9276   -1.3450    0.0010 C   0  0  0  0  0  0  0  0  0  5  0  0
  3  5  1  0
  3  4  2  0
  2  3  1  0
  1  2  1  0
M  END