ethene, trichloro-
  SciTegic01221516373D

  5  4  0  0  0  0            999 V2000
   -0.1772    0.2935    0.5008 C   0  0  0  0  0  0  0  0  0  1  0  0
    1.0841   -0.0053    0.1980 C   0  0  0  0  0  0  0  0  0  2  0  0
    2.1227   -0.6894    1.3984 Cl  0  0  0  0  0  0  0  0  0  3  0  0
    1.6826    0.2912   -1.3959 Cl  0  0  0  0  0  0  0  0  0  4  0  0
   -1.2138    0.9774   -0.7010 Cl  0  0  0  0  0  0  0  0  0  5  0  0
  1  5  1  0
  2  4  1  0
  2  3  1  0
  1  2  2  0
M  END