2-propenoic acid
  SciTegic01221516373D

  5  4  0  0  0  0            999 V2000
    2.0110   -0.4954   -0.8254 C   0  0  0  0  0  0  0  0  0  1  0  0
    1.2227    0.4551   -0.3282 C   0  0  0  0  0  0  0  0  0  2  0  0
   -0.1667    0.1484    0.0097 C   0  0  0  0  0  0  0  0  0  3  0  0
   -0.8997    1.0302    0.4715 O   0  0  0  0  0  0  0  0  0  4  0  0
   -0.6630   -1.1361   -0.1887 O   0  0  0  0  0  0  0  0  0  5  0  0
  3  5  1  0
  3  4  2  0
  2  3  1  0
  1  2  2  0
M  END