acetic acid, chloro-
  SciTegic01221516373D

  5  4  0  0  0  0            999 V2000
    1.1904    0.6079    0.2224 C   0  0  0  0  0  0  0  0  0  1  0  0
   -0.2158    0.1796   -0.0804 C   0  0  0  0  0  0  0  0  0  2  0  0
   -0.9614    0.9206   -0.7310 O   0  0  0  0  0  0  0  0  0  3  0  0
   -0.6798   -1.0518    0.3714 O   0  0  0  0  0  0  0  0  0  4  0  0
    1.9993   -0.6526    1.1594 Cl  0  0  0  0  0  0  0  0  0  5  0  0
  1  5  1  0
  2  4  1  0
  2  3  2  0
  1  2  1  0
M  END