ethane, 1,1,2,2-tetrachloro-
  SciTegic01221516373D

  6  5  0  0  0  0            999 V2000
   -0.2672   -0.0851   -0.1661 C   0  0  0  0  0  0  0  0  0  1  0  0
    1.2672   -0.1668   -0.0842 C   0  0  0  0  0  0  0  0  0  2  0  0
    1.7893    0.2363    1.5546 Cl  0  0  0  0  0  0  0  0  0  3  0  0
    1.9788    0.9767   -1.2276 Cl  0  0  0  0  0  0  0  0  0  4  0  0
   -0.7895    1.5542    0.2347 Cl  0  0  0  0  0  0  0  0  0  5  0  0
   -0.9788   -1.2270    0.9789 Cl  0  0  0  0  0  0  0  0  0  6  0  0
  1  6  1  0
  1  5  1  0
  2  4  1  0
  2  3  1  0
  1  2  1  0
M  END