1,2-benzenedicarboxylic acid, dibutyl ester
  SciTegic01221516373D

 20 20  0  0  0  0            999 V2000
    2.7888    1.7278    0.3766 C   0  0  0  0  0  0  0  0  0  1  0  0
    3.5417    2.6761    0.1315 O   0  0  0  0  0  0  0  0  0  2  0  0
    2.5573    0.7303   -0.7454 C   0  0  0  0  0  0  0  0  0  3  0  0
    3.6912    0.4121   -1.4875 C   0  0  0  0  0  0  0  0  0  4  0  0
    3.6435   -0.4997   -2.5333 C   0  0  0  0  0  0  0  0  0  5  0  0
    2.4409   -1.1086   -2.8578 C   0  0  0  0  0  0  0  0  0  6  0  0
    1.2942   -0.7787   -2.1485 C   0  0  0  0  0  0  0  0  0  7  0  0
    1.3326    0.1378   -1.1024 C   0  0  0  0  0  0  0  0  0  8  0  0
    0.0296    0.4624   -0.4729 C   0  0  0  0  0  0  0  0  0  9  0  0
   -0.0762    1.4054    0.3193 O   0  0  0  0  0  0  0  0  0 10  0  0
   -1.1045   -0.2845   -0.8439 O   0  0  0  0  0  0  0  0  0 11  0  0
   -2.3002    0.1444   -0.1544 C   0  0  0  0  0  0  0  0  0 12  0  0
   -2.2558   -0.2368    1.3543 C   0  0  0  0  0  0  0  0  0 13  0  0
   -2.1294   -1.7668    1.5252 C   0  0  0  0  0  0  0  0  0 14  0  0
   -3.3503   -2.4682    0.9018 C   0  0  0  0  0  0  0  0  0 15  0  0
    2.3973    1.5703    1.7797 O   0  0  0  0  0  0  0  0  0 16  0  0
    1.7919    0.3175    2.2056 C   0  0  0  0  0  0  0  0  0 17  0  0
    2.6779   -0.5530    3.1599 C   0  0  0  0  0  0  0  0  0 18  0  0
    3.9961   -1.0869    2.5224 C   0  0  0  0  0  0  0  0  0 19  0  0
    5.0432    0.0280    2.3298 C   0  0  0  0  0  0  0  0  0 20  0  0
 19 20  1  0
 18 19  1  0
 17 18  1  0
 16 17  1  0
  1 16  1  0
 14 15  1  0
 13 14  1  0
 12 13  1  0
 11 12  1  0
  9 11  1  0
  9 10  2  0
  8  9  1  0
  8  3  4  0
  7  8  4  0
  6  7  4  0
  5  6  4  0
  4  5  4  0
  3  4  4  0
  1  3  1  0
  1  2  2  0
M  END