benzenamine, n-nitroso-n-phenyl-
  SciTegic01221516373D

 15 16  0  0  0  0            999 V2000
    0.6723    1.2491    2.1957 C   0  0  0  0  0  0  0  0  0  1  0  0
    0.4050    1.9058    3.3956 C   0  0  0  0  0  0  0  0  0  2  0  0
    0.9716    1.4943    4.5965 C   0  0  0  0  0  0  0  0  0  3  0  0
    1.8280    0.4025    4.6227 C   0  0  0  0  0  0  0  0  0  4  0  0
    2.1091   -0.2682    3.4406 C   0  0  0  0  0  0  0  0  0  5  0  0
    1.5356    0.1551    2.2472 C   0  0  0  0  0  0  0  0  0  6  0  0
    0.0361    1.7299    0.9198 N   0  0  0  0  0  0  0  0  0  7  0  0
   -0.8430    2.7774    0.9212 N   0  0  0  0  0  0  0  0  0  8  0  0
   -1.1997    3.3493    1.8837 O   0  0  0  0  0  0  0  0  0  9  0  0
    0.2634    1.1742   -0.4099 C   0  0  0  0  0  0  0  0  0 10  0  0
   -0.4416    1.7591   -1.4574 C   0  0  0  0  0  0  0  0  0 11  0  0
   -0.2940    1.3045   -2.7629 C   0  0  0  0  0  0  0  0  0 12  0  0
    0.5683    0.2513   -3.0391 C   0  0  0  0  0  0  0  0  0 13  0  0
    1.2796   -0.3419   -2.0041 C   0  0  0  0  0  0  0  0  0 14  0  0
    1.1258    0.1188   -0.7016 C   0  0  0  0  0  0  0  0  0 15  0  0
 15 10  4  0
 14 15  4  0
 13 14  4  0
 12 13  4  0
 11 12  4  0
 10 11  4  0
  7 10  1  0
  8  9  2  0
  7  8  1  0
  1  7  1  0
  6  1  4  0
  5  6  4  0
  4  5  4  0
  3  4  4  0
  2  3  4  0
  1  2  4  0
M  END