benzenamine, 2,6-dimethyl-
  SciTegic01221516373D

  9  9  0  0  0  0            999 V2000
   -0.7973    0.7053   -0.0007 C   0  0  0  0  0  0  0  0  0  1  0  0
   -0.1018    1.9090   -0.0005 C   0  0  0  0  0  0  0  0  0  2  0  0
    1.2885    1.9085    0.0003 C   0  0  0  0  0  0  0  0  0  3  0  0
    1.9834    0.7043    0.0010 C   0  0  0  0  0  0  0  0  0  4  0  0
    1.2876   -0.4995    0.0008 C   0  0  0  0  0  0  0  0  0  5  0  0
   -0.1028   -0.4991   -0.0001 C   0  0  0  0  0  0  0  0  0  6  0  0
    2.0387    3.2079    0.0006 C   0  0  0  0  0  0  0  0  0  7  0  0
   -0.7991    3.1179   -0.0011 N   0  0  0  0  0  0  0  0  0  8  0  0
   -2.2978    0.7065   -0.0016 C   0  0  0  0  0  0  0  0  0  9  0  0
  1  9  1  0
  2  8  1  0
  3  7  1  0
  6  1  4  0
  5  6  4  0
  4  5  4  0
  3  4  4  0
  2  3  4  0
  1  2  4  0
M  END