phenol, 2,4,6-trichloro-
  SciTegic01221516373D

 10 10  0  0  0  0            999 V2000
   -0.8112    0.8667   -0.0011 C   0  0  0  0  0  0  0  0  0  1  0  0
   -0.1160    2.0705   -0.0012 C   0  0  0  0  0  0  0  0  0  2  0  0
    1.2742    2.0705   -0.0010 C   0  0  0  0  0  0  0  0  0  3  0  0
    1.9689    0.8662   -0.0008 C   0  0  0  0  0  0  0  0  0  4  0  0
    1.2738   -0.3379   -0.0008 C   0  0  0  0  0  0  0  0  0  5  0  0
   -0.1165   -0.3375   -0.0009 C   0  0  0  0  0  0  0  0  0  6  0  0
   -0.9814   -1.8328   -0.0008 Cl  0  0  0  0  0  0  0  0  0  7  0  0
    3.6966    0.8658   -0.0007 Cl  0  0  0  0  0  0  0  0  0  8  0  0
   -0.9803    3.5662   -0.0014 Cl  0  0  0  0  0  0  0  0  0  9  0  0
   -2.2016    0.8669   -0.0012 O   0  0  0  0  0  0  0  0  0 10  0  0
  1 10  1  0
  2  9  1  0
  4  8  1  0
  6  7  1  0
  6  1  4  0
  5  6  4  0
  4  5  4  0
  3  4  4  0
  2  3  4  0
  1  2  4  0
M  END