phenol, 2-nitro-
  SciTegic01221516373D

 10 10  0  0  0  0            999 V2000
   -1.2262    0.8503   -0.1971 C   0  0  0  0  0  0  0  0  0  1  0  0
   -0.5021    2.0246   -0.0276 C   0  0  0  0  0  0  0  0  0  2  0  0
    0.8801    1.9795    0.1173 C   0  0  0  0  0  0  0  0  0  3  0  0
    1.5415    0.7535    0.0925 C   0  0  0  0  0  0  0  0  0  4  0  0
    0.8144   -0.4197   -0.0773 C   0  0  0  0  0  0  0  0  0  5  0  0
   -0.5672   -0.3730   -0.2219 C   0  0  0  0  0  0  0  0  0  6  0  0
    2.9368    0.6759    0.2362 N   0  3  0  0  0  0  0  0  0  7  0  0
    3.5301   -0.5074    0.2074 O   0  0  0  0  0  0  0  0  0  8  0  0
    3.6662    1.7690    0.3999 O   0  5  0  0  0  0  0  0  0  9  0  0
    1.5862    3.1662    0.2858 O   0  0  0  0  0  0  0  0  0 10  0  0
  3 10  1  0
  7  9  1  0
  7  8  2  0
  4  7  1  0
  6  1  4  0
  5  6  4  0
  4  5  4  0
  3  4  4  0
  2  3  4  0
  1  2  4  0
M CHG   2   7   1   9  -1
M  END