phenol, 2-methoxy-
  SciTegic01221516373D

  9  9  0  0  0  0            999 V2000
   -0.6480    0.9075    0.0001 C   0  0  0  0  0  0  0  0  0  1  0  0
    0.0626    2.1045   -0.0002 C   0  0  0  0  0  0  0  0  0  2  0  0
    1.4530    2.0913   -0.0005 C   0  0  0  0  0  0  0  0  0  3  0  0
    2.1365    0.8809   -0.0004 C   0  0  0  0  0  0  0  0  0  4  0  0
    1.4288   -0.3157   -0.0001 C   0  0  0  0  0  0  0  0  0  5  0  0
    0.0385   -0.3016    0.0001 C   0  0  0  0  0  0  0  0  0  6  0  0
   -0.6679   -1.4992    0.0005 O   0  0  0  0  0  0  0  0  0  7  0  0
   -2.0532    0.9008    0.0003 O   0  0  0  0  0  0  0  0  0  8  0  0
   -2.5823    2.2350    0.0002 C   0  0  0  0  0  0  0  0  0  9  0  0
  8  9  1  0
  1  8  1  0
  6  7  1  0
  6  1  4  0
  5  6  4  0
  4  5  4  0
  3  4  4  0
  2  3  4  0
  1  2  4  0
M  END