naphthalene, 1-methyl-
  SciTegic01221516373D

 11 12  0  0  0  0            999 V2000
   -1.9165    2.3742   -0.6658 C   0  0  0  0  0  0  0  0  0  1  0  0
   -2.0505    2.0971    0.6899 C   0  0  0  0  0  0  0  0  0  2  0  0
   -1.0517    1.4003    1.3604 C   0  0  0  0  0  0  0  0  0  3  0  0
    0.0828    0.9799    0.6740 C   0  0  0  0  0  0  0  0  0  4  0  0
    0.2163    1.2575   -0.6826 C   0  0  0  0  0  0  0  0  0  5  0  0
   -0.7829    1.9544   -1.3522 C   0  0  0  0  0  0  0  0  0  6  0  0
    1.3492    0.8384   -1.3705 C   0  0  0  0  0  0  0  0  0  7  0  0
    2.3498    0.1414   -0.7028 C   0  0  0  0  0  0  0  0  0  8  0  0
    2.2173   -0.1365    0.6529 C   0  0  0  0  0  0  0  0  0  9  0  0
    1.0843    0.2826    1.3409 C   0  0  0  0  0  0  0  0  0 10  0  0
   -1.2024    1.1038    2.8258 C   0  0  0  0  0  0  0  0  0 11  0  0
  3 11  1  0
 10  4  4  0
  9 10  4  0
  8  9  4  0
  7  8  4  0
  5  7  4  0
  6  1  4  0
  5  6  4  0
  4  5  4  0
  3  4  4  0
  2  3  4  0
  1  2  4  0
M  END