naphthalene
  SciTegic01221516373D

 10 11  0  0  0  0            999 V2000
   -1.8641    2.5623   -0.5376 C   0  0  0  0  0  0  0  0  0  1  0  0
   -2.2097    1.9870    0.6801 C   0  0  0  0  0  0  0  0  0  2  0  0
   -1.3326    1.1106    1.3091 C   0  0  0  0  0  0  0  0  0  3  0  0
   -0.1100    0.8097    0.7200 C   0  0  0  0  0  0  0  0  0  4  0  0
    0.2357    1.3853   -0.4982 C   0  0  0  0  0  0  0  0  0  5  0  0
   -0.6414    2.2616   -1.1270 C   0  0  0  0  0  0  0  0  0  6  0  0
    1.4583    1.0844   -1.0874 C   0  0  0  0  0  0  0  0  0  7  0  0
    2.3354    0.2080   -0.4584 C   0  0  0  0  0  0  0  0  0  8  0  0
    1.9898   -0.3674    0.7594 C   0  0  0  0  0  0  0  0  0  9  0  0
    0.7671   -0.0666    1.3487 C   0  0  0  0  0  0  0  0  0 10  0  0
 10  4  4  0
  9 10  4  0
  8  9  4  0
  7  8  4  0
  5  7  4  0
  6  1  4  0
  5  6  4  0
  4  5  4  0
  3  4  4  0
  2  3  4  0
  1  2  4  0
M  END