2-naphthalenamine
  SciTegic01221516373D

 11 12  0  0  0  0            999 V2000
   -2.6474    1.6406    0.3470 C   0  0  0  0  0  0  0  0  0  1  0  0
   -1.7368    0.8124    0.9934 C   0  0  0  0  0  0  0  0  0  2  0  0
   -0.4409    0.6908    0.5054 C   0  0  0  0  0  0  0  0  0  3  0  0
   -0.0554    1.3974   -0.6289 C   0  0  0  0  0  0  0  0  0  4  0  0
   -0.9660    2.2255   -1.2751 C   0  0  0  0  0  0  0  0  0  5  0  0
   -2.2621    2.3470   -0.7870 C   0  0  0  0  0  0  0  0  0  6  0  0
    1.2406    1.2759   -1.1170 C   0  0  0  0  0  0  0  0  0  7  0  0
    2.1511    0.4477   -0.4706 C   0  0  0  0  0  0  0  0  0  8  0  0
    1.7656   -0.2586    0.6633 C   0  0  0  0  0  0  0  0  0  9  0  0
    0.4696   -0.1372    1.1515 C   0  0  0  0  0  0  0  0  0 10  0  0
    2.6801   -1.0898    1.3117 N   0  0  0  0  0  0  0  0  0 11  0  0
  9 11  1  0
 10  3  4  0
  9 10  4  0
  8  9  4  0
  7  8  4  0
  4  7  4  0
  6  1  4  0
  5  6  4  0
  4  5  4  0
  3  4  4  0
  2  3  4  0
  1  2  4  0
M  END