acetic acid, (2,4-dichlorophenoxy)-
  SciTegic01221516373D

 13 13  0  0  0  0            999 V2000
   -1.0349    4.9099    1.8637 O   0  0  0  0  0  0  0  0  0  1  0  0
   -1.1156    3.7909    1.3451 C   0  0  0  0  0  0  0  0  0  2  0  0
   -0.8218    2.5531    2.1695 C   0  0  0  0  0  0  0  0  0  3  0  0
   -0.9470    1.3535    1.3716 O   0  0  0  0  0  0  0  0  0  4  0  0
    0.2004    1.0583    0.5893 C   0  0  0  0  0  0  0  0  0  5  0  0
    1.3494    1.8443    0.6408 C   0  0  0  0  0  0  0  0  0  6  0  0
    2.4563    1.5221   -0.1360 C   0  0  0  0  0  0  0  0  0  7  0  0
    2.4200    0.4094   -0.9677 C   0  0  0  0  0  0  0  0  0  8  0  0
    1.2773   -0.3799   -1.0201 C   0  0  0  0  0  0  0  0  0  9  0  0
    0.1715   -0.0556   -0.2425 C   0  0  0  0  0  0  0  0  0 10  0  0
   -1.2464   -1.0396   -0.3095 Cl  0  0  0  0  0  0  0  0  0 11  0  0
    3.7943    0.0067   -1.9343 Cl  0  0  0  0  0  0  0  0  0 12  0  0
   -1.4848    3.6701    0.0081 O   0  0  0  0  0  0  0  0  0 13  0  0
  2 13  1  0
  8 12  1  0
 10 11  1  0
 10  5  4  0
  9 10  4  0
  8  9  4  0
  7  8  4  0
  6  7  4  0
  5  6  4  0
  4  5  1  0
  3  4  1  0
  2  3  1  0
  1  2  2  0
M  END