2,4-dichlorophenoxybutyric acid
  SciTegic01221516373D

 15 15  0  0  0  0            999 V2000
   -0.1571    7.4013    1.7006 O   0  0  0  0  0  0  0  0  0  1  0  0
   -0.4535    6.1506    1.1692 C   0  0  0  0  0  0  0  0  0  2  0  0
   -0.8294    6.0505   -0.0043 O   0  0  0  0  0  0  0  0  0  3  0  0
   -0.3051    4.9214    2.0160 C   0  0  0  0  0  0  0  0  0  4  0  0
   -0.6759    3.6844    1.1822 C   0  0  0  0  0  0  0  0  0  5  0  0
   -0.4892    2.4017    2.0414 C   0  0  0  0  0  0  0  0  0  6  0  0
   -0.7936    1.2152    1.2702 O   0  0  0  0  0  0  0  0  0  7  0  0
    0.2839    0.7515    0.4635 C   0  0  0  0  0  0  0  0  0  8  0  0
    1.5347    1.3660    0.4734 C   0  0  0  0  0  0  0  0  0  9  0  0
    2.5639    0.8826   -0.3257 C   0  0  0  0  0  0  0  0  0 10  0  0
    2.3485   -0.2228   -1.1394 C   0  0  0  0  0  0  0  0  0 11  0  0
    1.1050   -0.8434   -1.1500 C   0  0  0  0  0  0  0  0  0 12  0  0
    0.0771   -0.3576   -0.3498 C   0  0  0  0  0  0  0  0  0 13  0  0
   -1.4660   -1.1334   -0.3665 Cl  0  0  0  0  0  0  0  0  0 14  0  0
    3.6254   -0.8247   -2.1351 Cl  0  0  0  0  0  0  0  0  0 15  0  0
 11 15  1  0
 13 14  1  0
 13  8  4  0
 12 13  4  0
 11 12  4  0
 10 11  4  0
  9 10  4  0
  8  9  4  0
  7  8  1  0
  6  7  1  0
  5  6  1  0
  4  5  1  0
  2  4  1  0
  2  3  2  0
  1  2  1  0
M  END