benzo b thiophene
  SciTegic01221516373D

  9 10  0  0  0  0            999 V2000
   -1.1746    3.0001    0.8370 C   0  0  0  0  0  0  0  0  0  1  0  0
   -0.9104    1.7005    1.2687 C   0  0  0  0  0  0  0  0  0  2  0  0
    0.0411    0.9673    0.5750 C   0  0  0  0  0  0  0  0  0  3  0  0
    0.6975    1.5189   -0.5058 C   0  0  0  0  0  0  0  0  0  4  0  0
    0.4520    2.8074   -0.9530 C   0  0  0  0  0  0  0  0  0  5  0  0
   -0.5031    3.5480   -0.2594 C   0  0  0  0  0  0  0  0  0  6  0  0
    1.7330    0.4186   -1.0885 S   0  0  0  0  0  0  0  0  0  7  0  0
    1.4252   -0.7913   -0.0398 C   0  0  0  0  0  0  0  0  0  8  0  0
    0.4421   -0.3453    0.8544 C   0  0  0  0  0  0  0  0  0  9  0  0
  9  3  4  0
  8  9  4  0
  7  8  4  0
  4  7  4  0
  6  1  4  0
  5  6  4  0
  4  5  4  0
  3  4  4  0
  2  3  4  0
  1  2  4  0
M  END