benzene, 1,2-dimethyl-
  SciTegic01221516373D

  8  8  0  0  0  0            999 V2000
   -1.8700    1.2675    0.9579 C   0  0  0  0  0  0  0  0  0  1  0  0
   -0.4804    1.1240    0.4016 C   0  0  0  0  0  0  0  0  0  2  0  0
    0.2806    2.2594    0.1463 C   0  0  0  0  0  0  0  0  0  3  0  0
    1.5663    2.1353   -0.3680 C   0  0  0  0  0  0  0  0  0  4  0  0
    2.0922    0.8748   -0.6274 C   0  0  0  0  0  0  0  0  0  5  0  0
    1.3320   -0.2610   -0.3724 C   0  0  0  0  0  0  0  0  0  6  0  0
    0.0460   -0.1379    0.1420 C   0  0  0  0  0  0  0  0  0  7  0  0
   -0.7691   -1.3716    0.4147 C   0  0  0  0  0  0  0  0  0  8  0  0
  7  8  1  0
  7  2  4  0
  6  7  4  0
  5  6  4  0
  4  5  4  0
  3  4  4  0
  2  3  4  0
  1  2  1  0
M  END