phenol, 2-methyl-
  SciTegic01221516373D

  8  8  0  0  0  0            999 V2000
   -1.0430    0.9643    0.0006 C   0  0  0  0  0  0  0  0  0  1  0  0
   -0.3467    2.1678    0.0017 C   0  0  0  0  0  0  0  0  0  2  0  0
    1.0437    2.1665    0.0020 C   0  0  0  0  0  0  0  0  0  3  0  0
    1.7375    0.9617    0.0011 C   0  0  0  0  0  0  0  0  0  4  0  0
    1.0412   -0.2417    0.0000 C   0  0  0  0  0  0  0  0  0  5  0  0
   -0.3492   -0.2406   -0.0002 C   0  0  0  0  0  0  0  0  0  6  0  0
    1.7906   -1.5419   -0.0010 C   0  0  0  0  0  0  0  0  0  7  0  0
    3.1282    0.9600    0.0013 O   0  0  0  0  0  0  0  0  0  8  0  0
  4  8  1  0
  5  7  1  0
  6  1  4  0
  5  6  4  0
  4  5  4  0
  3  4  4  0
  2  3  4  0
  1  2  4  0
M  END