benzenamine, 2-chloro-
  SciTegic01221516373D

  8  8  0  0  0  0            999 V2000
   -0.7004    0.9534    0.0004 C   0  0  0  0  0  0  0  0  0  1  0  0
   -0.0024    2.1558   -0.0006 C   0  0  0  0  0  0  0  0  0  2  0  0
    1.3880    2.1520   -0.0013 C   0  0  0  0  0  0  0  0  0  3  0  0
    2.0801    0.9460   -0.0012 C   0  0  0  0  0  0  0  0  0  4  0  0
    1.3819   -0.2564   -0.0002 C   0  0  0  0  0  0  0  0  0  5  0  0
   -0.0084   -0.2525    0.0006 C   0  0  0  0  0  0  0  0  0  6  0  0
   -0.7100   -1.4589    0.0015 N   0  0  0  0  0  0  0  0  0  7  0  0
   -2.4280    0.9569    0.0014 Cl  0  0  0  0  0  0  0  0  0  8  0  0
  1  8  1  0
  6  7  1  0
  6  1  4  0
  5  6  4  0
  4  5  4  0
  3  4  4  0
  2  3  4  0
  1  2  4  0
M  END