benzenamine, 2-methyl-
  SciTegic01221516373D

  8  8  0  0  0  0            999 V2000
   -1.0512    0.9493    0.0002 C   0  0  0  0  0  0  0  0  0  1  0  0
   -0.3569    2.1539   -0.0001 C   0  0  0  0  0  0  0  0  0  2  0  0
    1.0335    2.1553   -0.0001 C   0  0  0  0  0  0  0  0  0  3  0  0
    1.7295    0.9517    0.0002 C   0  0  0  0  0  0  0  0  0  4  0  0
    1.0353   -0.2530    0.0004 C   0  0  0  0  0  0  0  0  0  5  0  0
   -0.3551   -0.2543    0.0004 C   0  0  0  0  0  0  0  0  0  6  0  0
    1.7344   -1.4610    0.0007 N   0  0  0  0  0  0  0  0  0  7  0  0
    3.2302    0.9526    0.0002 C   0  0  0  0  0  0  0  0  0  8  0  0
  4  8  1  0
  5  7  1  0
  6  1  4  0
  5  6  4  0
  4  5  4  0
  3  4  4  0
  2  3  4  0
  1  2  4  0
M  END