benzene, 1,2,4-trimethyl-
  SciTegic01221516373D

  9  9  0  0  0  0            999 V2000
   -0.9395    0.7802   -0.0003 C   0  0  0  0  0  0  0  0  0  1  0  0
   -0.2452    1.9849   -0.0007 C   0  0  0  0  0  0  0  0  0  2  0  0
    1.1465    1.9846   -0.0009 C   0  0  0  0  0  0  0  0  0  3  0  0
    1.8402    0.7797   -0.0007 C   0  0  0  0  0  0  0  0  0  4  0  0
    1.1450   -0.4242   -0.0003 C   0  0  0  0  0  0  0  0  0  5  0  0
   -0.2452   -0.4242   -0.0001 C   0  0  0  0  0  0  0  0  0  6  0  0
    1.8953   -1.7234   -0.0001 C   0  0  0  0  0  0  0  0  0  7  0  0
    1.9063    3.2819   -0.0013 C   0  0  0  0  0  0  0  0  0  8  0  0
   -1.0043    3.2827   -0.0009 C   0  0  0  0  0  0  0  0  0  9  0  0
  2  9  1  0
  3  8  1  0
  5  7  1  0
  6  1  4  0
  5  6  4  0
  4  5  4  0
  3  4  4  0
  2  3  4  0
  1  2  4  0
M  END