phenol, 2,4,5-trichloro-
  SciTegic01221516373D

 10 10  0  0  0  0            999 V2000
    0.2533    1.4753   -1.1410 C   0  0  0  0  0  0  0  0  0  1  0  0
    0.7910    2.3001   -0.1595 C   0  0  0  0  0  0  0  0  0  2  0  0
    1.3492    1.7450    0.9864 C   0  0  0  0  0  0  0  0  0  3  0  0
    1.8868    2.5710    1.9674 O   0  0  0  0  0  0  0  0  0  4  0  0
    1.3700    0.3647    1.1516 C   0  0  0  0  0  0  0  0  0  5  0  0
    0.8323   -0.4601    0.1701 C   0  0  0  0  0  0  0  0  0  6  0  0
    0.2741    0.0950   -0.9758 C   0  0  0  0  0  0  0  0  0  7  0  0
   -0.3937   -0.9313   -2.1945 Cl  0  0  0  0  0  0  0  0  0  8  0  0
    0.8574   -2.1754    0.3737 Cl  0  0  0  0  0  0  0  0  0  9  0  0
    0.7659    4.0153   -0.3632 Cl  0  0  0  0  0  0  0  0  0 10  0  0
  2 10  1  0
  6  9  1  0
  7  8  1  0
  7  1  4  0
  6  7  4  0
  5  6  4  0
  3  5  4  0
  3  4  1  0
  2  3  4  0
  1  2  4  0
M  END