propane, 1,2,3-trichloro-
  SciTegic01221516373D

  6  5  0  0  0  0            999 V2000
   -0.1059   -0.1397   -0.4333 C   0  0  0  0  0  0  0  0  0  1  0  0
    1.4050   -0.3293   -0.1225 C   0  0  0  0  0  0  0  0  0  2  0  0
    1.8740    0.4545    1.3915 Cl  0  0  0  0  0  0  0  0  0  3  0  0
   -0.4908    1.5813   -0.5368 Cl  0  0  0  0  0  0  0  0  0  4  0  0
   -1.0296   -0.8298    0.6086 C   0  0  0  0  0  0  0  0  0  5  0  0
   -0.8706   -0.1097    2.2157 Cl  0  0  0  0  0  0  0  0  0  6  0  0
  5  6  1  0
  1  5  1  0
  1  4  1  0
  2  3  1  0
  1  2  1  0
M  END