3-pentanone
  SciTegic01221516373D

  6  5  0  0  0  0            999 V2000
    1.3966    0.5846    0.2836 C   0  0  0  0  0  0  0  0  0  1  0  0
   -0.0481    0.2841   -0.0389 C   0  0  0  0  0  0  0  0  0  2  0  0
   -0.7240    1.1183   -0.6518 O   0  0  0  0  0  0  0  0  0  3  0  0
   -0.6730   -1.0211    0.3785 C   0  0  0  0  0  0  0  0  0  4  0  0
   -2.1436   -1.0573   -0.0776 C   0  0  0  0  0  0  0  0  0  5  0  0
    2.0425   -0.5905    1.0483 C   0  0  0  0  0  0  0  0  0  6  0  0
  1  6  1  0
  4  5  1  0
  2  4  1  0
  2  3  2  0
  1  2  1  0
M  END