ethanone, 1-phenyl-
  SciTegic01221516373D

  9  9  0  0  0  0            999 V2000
   -1.1570    0.9005    2.7221 C   0  0  0  0  0  0  0  0  0  1  0  0
   -0.8842    1.7412    1.5076 C   0  0  0  0  0  0  0  0  0  2  0  0
   -1.4631    2.8237    1.3635 O   0  0  0  0  0  0  0  0  0  3  0  0
    0.0652    1.2823    0.4939 C   0  0  0  0  0  0  0  0  0  4  0  0
    0.3123    2.0661   -0.6275 C   0  0  0  0  0  0  0  0  0  5  0  0
    1.2140    1.6332   -1.5931 C   0  0  0  0  0  0  0  0  0  6  0  0
    1.8687    0.4165   -1.4373 C   0  0  0  0  0  0  0  0  0  7  0  0
    1.6216   -0.3675   -0.3159 C   0  0  0  0  0  0  0  0  0  8  0  0
    0.7199    0.0654    0.6497 C   0  0  0  0  0  0  0  0  0  9  0  0
  9  4  4  0
  8  9  4  0
  7  8  4  0
  6  7  4  0
  5  6  4  0
  4  5  4  0
  2  4  1  0
  2  3  2  0
  1  2  1  0
M  END