benzene, nitro-
  SciTegic01221516373D

  9  9  0  0  0  0            999 V2000
   -0.9351    1.3649    1.5703 N   0  3  0  0  0  0  0  0  0  1  0  0
   -1.1785    0.4410    2.4872 O   0  0  0  0  0  0  0  0  0  2  0  0
   -1.5968    2.5117    1.5922 O   0  5  0  0  0  0  0  0  0  3  0  0
    0.0183    1.1301    0.5815 C   0  0  0  0  0  0  0  0  0  4  0  0
    0.2738    2.1001   -0.3811 C   0  0  0  0  0  0  0  0  0  5  0  0
    1.2250    1.8658   -1.3677 C   0  0  0  0  0  0  0  0  0  6  0  0
    1.9200    0.6617   -1.3910 C   0  0  0  0  0  0  0  0  0  7  0  0
    1.6641   -0.3081   -0.4281 C   0  0  0  0  0  0  0  0  0  8  0  0
    0.7130   -0.0739    0.5585 C   0  0  0  0  0  0  0  0  0  9  0  0
  9  4  4  0
  8  9  4  0
  7  8  4  0
  6  7  4  0
  5  6  4  0
  4  5  4  0
  1  4  1  0
  1  3  1  0
  1  2  2  0
M CHG   2   1   1   3  -1
M  END