phenol, 4-nitro-
  SciTegic01221516373D

 10 10  0  0  0  0            999 V2000
   -1.1044    0.9026   -0.0919 C   0  0  0  0  0  0  0  0  0  1  0  0
   -0.3822    2.0605    0.1749 C   0  0  0  0  0  0  0  0  0  2  0  0
    1.0020    2.0048    0.2907 C   0  0  0  0  0  0  0  0  0  3  0  0
    1.6632    0.7912    0.1397 C   0  0  0  0  0  0  0  0  0  4  0  0
    0.9415   -0.3667   -0.1271 C   0  0  0  0  0  0  0  0  0  5  0  0
   -0.4428   -0.3109   -0.2429 C   0  0  0  0  0  0  0  0  0  6  0  0
    3.0507    0.7353    0.2558 N   0  3  0  0  0  0  0  0  0  7  0  0
    3.6805   -0.4207    0.1119 O   0  0  0  0  0  0  0  0  0  8  0  0
    3.7382    1.8381    0.5098 O   0  5  0  0  0  0  0  0  0  9  0  0
   -2.4892    0.9584   -0.2077 O   0  0  0  0  0  0  0  0  0 10  0  0
  1 10  1  0
  7  9  1  0
  7  8  2  0
  4  7  1  0
  6  1  4  0
  5  6  4  0
  4  5  4  0
  3  4  4  0
  2  3  4  0
  1  2  4  0
M CHG   2   7   1   9  -1
M  END