benzene, ethyl-
  SciTegic01221516373D

  8  8  0  0  0  0            999 V2000
   -0.6400    0.8090    0.0005 C   0  0  0  0  0  0  0  0  0  1  0  0
    0.0641    2.0089   -0.0006 C   0  0  0  0  0  0  0  0  0  2  0  0
    1.4545    2.0011   -0.0011 C   0  0  0  0  0  0  0  0  0  3  0  0
    2.1427    0.7931   -0.0005 C   0  0  0  0  0  0  0  0  0  4  0  0
    1.4400   -0.4066    0.0006 C   0  0  0  0  0  0  0  0  0  5  0  0
    0.0497   -0.3983    0.0011 C   0  0  0  0  0  0  0  0  0  6  0  0
   -2.1476    0.8075    0.0010 C   0  0  0  0  0  0  0  0  0  7  0  0
   -2.6878    2.2524    0.0002 C   0  0  0  0  0  0  0  0  0  8  0  0
  7  8  1  0
  1  7  1  0
  6  1  4  0
  5  6  4  0
  4  5  4  0
  3  4  4  0
  2  3  4  0
  1  2  4  0
M  END