benzenemethanol
  SciTegic01221516373D

  8  8  0  0  0  0            999 V2000
   -0.8191    0.6396   -0.0003 C   0  0  0  0  0  0  0  0  0  1  0  0
   -0.1156    1.8388    0.0001 C   0  0  0  0  0  0  0  0  0  2  0  0
    1.2747    1.8299    0.0004 C   0  0  0  0  0  0  0  0  0  3  0  0
    1.9619    0.6213    0.0002 C   0  0  0  0  0  0  0  0  0  4  0  0
    1.2586   -0.5782   -0.0002 C   0  0  0  0  0  0  0  0  0  5  0  0
   -0.1318   -0.5690   -0.0005 C   0  0  0  0  0  0  0  0  0  6  0  0
   -0.8563    3.1431    0.0002 C   0  0  0  0  0  0  0  0  0  7  0  0
    0.0816    4.2218    0.0007 O   0  0  0  0  0  0  0  0  0  8  0  0
  7  8  1  0
  2  7  1  0
  6  1  4  0
  5  6  4  0
  4  5  4  0
  3  4  4  0
  2  3  4  0
  1  2  4  0
M  END