benzene, 1,1'-oxybis-
  SciTegic01221516373D

 13 14  0  0  0  0            999 V2000
   -1.4268    1.2103    1.7653 C   0  0  0  0  0  0  0  0  0  1  0  0
   -0.4916    0.7927    0.8229 C   0  0  0  0  0  0  0  0  0  2  0  0
   -0.7889    1.1076   -0.5700 O   0  0  0  0  0  0  0  0  0  3  0  0
    0.0595    0.7588   -1.7042 C   0  0  0  0  0  0  0  0  0  4  0  0
   -0.3962    1.1469   -2.9607 C   0  0  0  0  0  0  0  0  0  5  0  0
    0.3354    0.8645   -4.1088 C   0  0  0  0  0  0  0  0  0  6  0  0
    1.5427    0.1844   -4.0144 C   0  0  0  0  0  0  0  0  0  7  0  0
    2.0112   -0.2096   -2.7678 C   0  0  0  0  0  0  0  0  0  8  0  0
    1.2730    0.0770   -1.6253 C   0  0  0  0  0  0  0  0  0  9  0  0
    0.6408    0.1159    1.2738 C   0  0  0  0  0  0  0  0  0 10  0  0
    0.8348   -0.1373    2.6268 C   0  0  0  0  0  0  0  0  0 11  0  0
   -0.1079    0.2860    3.5547 C   0  0  0  0  0  0  0  0  0 12  0  0
   -1.2411    0.9614    3.1205 C   0  0  0  0  0  0  0  0  0 13  0  0
 13  1  4  0
 12 13  4  0
 11 12  4  0
 10 11  4  0
  2 10  4  0
  9  4  4  0
  8  9  4  0
  7  8  4  0
  6  7  4  0
  5  6  4  0
  4  5  4  0
  3  4  1  0
  2  3  1  0
  1  2  4  0
M  END