benzene, 1,4-dimethyl-
  SciTegic01221516373D

  8  8  0  0  0  0            999 V2000
   -2.1244    1.2176    0.8529 C   0  0  0  0  0  0  0  0  0  1  0  0
   -0.6841    1.0804    0.4549 C   0  0  0  0  0  0  0  0  0  2  0  0
    0.0401    2.2026    0.0683 C   0  0  0  0  0  0  0  0  0  3  0  0
    1.3746    2.0755   -0.3005 C   0  0  0  0  0  0  0  0  0  4  0  0
    1.9846    0.8261   -0.2827 C   0  0  0  0  0  0  0  0  0  5  0  0
    1.2604   -0.2961    0.1038 C   0  0  0  0  0  0  0  0  0  6  0  0
   -0.0741   -0.1690    0.4726 C   0  0  0  0  0  0  0  0  0  7  0  0
    3.4249    0.6889   -0.6808 C   0  0  0  0  0  0  0  0  0  8  0  0
  5  8  1  0
  7  2  4  0
  6  7  4  0
  5  6  4  0
  4  5  4  0
  3  4  4  0
  2  3  4  0
  1  2  1  0
M  END