ethane, 1,2-dichloro-
  SciTegic01221516373D

  4  3  0  0  0  0            999 V2000
   -0.2657   -0.2201   -0.3288 C   0  0  0  0  0  0  0  0  0  1  0  0
    1.2661   -0.3296   -0.2193 C   0  0  0  0  0  0  0  0  0  2  0  0
    1.7677    0.0647    1.4282 Cl  0  0  0  0  0  0  0  0  0  3  0  0
   -0.7673    1.4275    0.0652 Cl  0  0  0  0  0  0  0  0  0  4  0  0
  1  4  1  0
  2  3  1  0
  1  2  1  0
M  END