propanenitrile
  SciTegic01221516373D

  4  3  0  0  0  0            999 V2000
   -0.4759   -0.0006   -0.2839 C   0  0  0  0  0  0  0  0  0  1  0  0
    1.0635    0.0018   -0.2530 C   0  0  0  0  0  0  0  0  0  2  0  0
    1.5232    0.0020    1.1356 C   0  0  0  0  0  0  0  0  0  3  0  0
    1.8849    0.0022    2.2283 N   0  0  0  0  0  0  0  0  0  4  0  0
  3  4  3  0
  2  3  1  0
  1  2  1  0
M  END