2-propenenitrile
  SciTegic01221516373D

  4  3  0  0  0  0            999 V2000
   -0.3737   -0.0020   -0.2153 C   0  0  0  0  0  0  0  0  0  1  0  0
    0.9575    0.0008   -0.2167 C   0  0  0  0  0  0  0  0  0  2  0  0
    1.6705   -0.0001    1.0163 C   0  0  0  0  0  0  0  0  0  3  0  0
    2.2466   -0.0008    2.0127 N   0  0  0  0  0  0  0  0  0  4  0  0
  3  4  3  0
  2  3  1  0
  1  2  2  0
M  END