2-propen-1-ol
  SciTegic01221516373D

  4  3  0  0  0  0            999 V2000
   -0.2564    0.2437   -0.1818 C   0  0  0  0  0  0  0  0  0  1  0  0
    0.8645   -0.4692   -0.0933 C   0  0  0  0  0  0  0  0  0  2  0  0
    1.9710   -0.0188    0.8164 C   0  0  0  0  0  0  0  0  0  3  0  0
    1.5858    1.1914    1.4737 O   0  0  0  0  0  0  0  0  0  4  0  0
  3  4  1  0
  2  3  1  0
  1  2  2  0
M  END