methane, chloromethoxy-
  SciTegic01221516373D

  4  3  0  0  0  0            999 V2000
   -0.2321    0.1985   -0.5232 C   0  0  0  0  0  0  0  0  0  1  0  0
    1.0768   -0.3053   -0.2431 O   0  0  0  0  0  0  0  0  0  2  0  0
    1.5592    0.2674    0.9756 C   0  0  0  0  0  0  0  0  0  3  0  0
    0.4731   -0.1625    2.3018 Cl  0  0  0  0  0  0  0  0  0  4  0  0
  3  4  1  0
  2  3  1  0
  1  2  1  0
M  END