2-pentanone
  SciTegic01221516373D

  6  5  0  0  0  0            999 V2000
    1.6848    1.3098   -0.0005 C   0  0  0  0  0  0  0  0  0  1  0  0
    1.1570   -0.1362    0.0003 C   0  0  0  0  0  0  0  0  0  2  0  0
   -0.3437   -0.1211   -0.0003 C   0  0  0  0  0  0  0  0  0  3  0  0
   -0.9513    0.9556   -0.0012 O   0  0  0  0  0  0  0  0  0  4  0  0
   -1.1067   -1.4135    0.0003 C   0  0  0  0  0  0  0  0  0  5  0  0
    3.2238    1.2937    0.0001 C   0  0  0  0  0  0  0  0  0  6  0  0
  1  6  1  0
  3  5  1  0
  3  4  2  0
  2  3  1  0
  1  2  1  0
M  END