acetic acid ethenyl ester
  SciTegic01221516373D

  6  5  0  0  0  0            999 V2000
    3.0701    1.2412    0.0004 C   0  0  0  0  0  0  0  0  0  1  0  0
    1.5745    1.1135    0.0004 C   0  0  0  0  0  0  0  0  0  2  0  0
    0.8966    2.1474   -0.0002 O   0  0  0  0  0  0  0  0  0  3  0  0
    1.0037   -0.2001    0.0011 O   0  0  0  0  0  0  0  0  0  4  0  0
   -0.4245   -0.3348    0.0012 C   0  0  0  0  0  0  0  0  0  5  0  0
   -1.2950    0.6753    0.0006 C   0  0  0  0  0  0  0  0  0  6  0  0
  5  6  2  0
  4  5  1  0
  2  4  1  0
  2  3  2  0
  1  2  1  0
M  END