2-pentanone, 4-methyl-
  SciTegic01221516373D

  7  6  0  0  0  0            999 V2000
    1.6664    1.2537   -0.0352 C   0  0  0  0  0  0  0  0  0  1  0  0
    1.1069   -0.1918   -0.0660 C   0  0  0  0  0  0  0  0  0  2  0  0
   -0.4065   -0.2156   -0.0697 C   0  0  0  0  0  0  0  0  0  3  0  0
   -1.0579    0.8293   -0.1879 O   0  0  0  0  0  0  0  0  0  4  0  0
   -1.1257   -1.5307    0.0097 C   0  0  0  0  0  0  0  0  0  5  0  0
    3.2024    1.1977   -0.1147 C   0  0  0  0  0  0  0  0  0  6  0  0
    1.2669    1.9598    1.2819 C   0  0  0  0  0  0  0  0  0  7  0  0
  1  7  1  0
  1  6  1  0
  3  5  1  0
  3  4  2  0
  2  3  1  0
  1  2  1  0
M  END