benzene, 1,3-dimethyl-
  SciTegic01221516373D

  8  8  0  0  0  0            999 V2000
   -0.9461    0.7693   -0.0002 C   0  0  0  0  0  0  0  0  0  1  0  0
   -0.2509    1.9735    0.0000 C   0  0  0  0  0  0  0  0  0  2  0  0
    1.1394    1.9739   -0.0002 C   0  0  0  0  0  0  0  0  0  3  0  0
    1.8345    0.7699   -0.0007 C   0  0  0  0  0  0  0  0  0  4  0  0
    1.1397   -0.4344   -0.0009 C   0  0  0  0  0  0  0  0  0  5  0  0
   -0.2507   -0.4347   -0.0007 C   0  0  0  0  0  0  0  0  0  6  0  0
    3.3350    0.7704   -0.0009 C   0  0  0  0  0  0  0  0  0  7  0  0
   -1.0012    3.2730    0.0006 C   0  0  0  0  0  0  0  0  0  8  0  0
  2  8  1  0
  4  7  1  0
  6  1  4  0
  5  6  4  0
  4  5  4  0
  3  4  4  0
  2  3  4  0
  1  2  4  0
M  END