benzene, 1,3,5-trimethyl-
  SciTegic01221516373D

  9  9  0  0  0  0            999 V2000
   -0.8904    0.8652   -0.0013 C   0  0  0  0  0  0  0  0  0  1  0  0
   -0.1946    2.0689   -0.0010 C   0  0  0  0  0  0  0  0  0  2  0  0
    1.1957    2.0686   -0.0003 C   0  0  0  0  0  0  0  0  0  3  0  0
    1.8901    0.8642    0.0001 C   0  0  0  0  0  0  0  0  0  4  0  0
    1.1948   -0.3397   -0.0003 C   0  0  0  0  0  0  0  0  0  5  0  0
   -0.1955   -0.3389   -0.0009 C   0  0  0  0  0  0  0  0  0  6  0  0
   -0.9461   -1.6379   -0.0013 C   0  0  0  0  0  0  0  0  0  7  0  0
    3.3904    0.8637    0.0008 C   0  0  0  0  0  0  0  0  0  8  0  0
   -0.9443    3.3684   -0.0014 C   0  0  0  0  0  0  0  0  0  9  0  0
  2  9  1  0
  4  8  1  0
  6  7  1  0
  6  1  4  0
  5  6  4  0
  4  5  4  0
  3  4  4  0
  2  3  4  0
  1  2  4  0
M  END