benzene, 1,3,5-trichloro-
  SciTegic01221516373D

  9  9  0  0  0  0            999 V2000
   -0.8902    0.8664   -0.0005 C   0  0  0  0  0  0  0  0  0  1  0  0
   -0.1953    2.0706    0.0002 C   0  0  0  0  0  0  0  0  0  2  0  0
    1.1950    2.0707    0.0008 C   0  0  0  0  0  0  0  0  0  3  0  0
    1.8905    0.8668    0.0007 C   0  0  0  0  0  0  0  0  0  4  0  0
    1.1954   -0.3373   -0.0001 C   0  0  0  0  0  0  0  0  0  5  0  0
   -0.1949   -0.3377   -0.0007 C   0  0  0  0  0  0  0  0  0  6  0  0
    2.0595   -1.8334   -0.0002 Cl  0  0  0  0  0  0  0  0  0  7  0  0
    2.0586    3.5670    0.0018 Cl  0  0  0  0  0  0  0  0  0  8  0  0
   -2.6179    0.8661   -0.0013 Cl  0  0  0  0  0  0  0  0  0  9  0  0
  1  9  1  0
  3  8  1  0
  5  7  1  0
  6  1  4  0
  5  6  4  0
  4  5  4  0
  3  4  4  0
  2  3  4  0
  1  2  4  0
M  END