benzene, bromo-
  SciTegic01221516373D

  7  7  0  0  0  0            999 V2000
   -2.0332    1.4055    1.4837 Br  0  0  0  0  0  0  0  0  0  1  0  0
   -0.4039    1.1084    0.5508 C   0  0  0  0  0  0  0  0  0  2  0  0
    0.2619    2.1752   -0.0424 C   0  0  0  0  0  0  0  0  0  3  0  0
    1.4537    1.9579   -0.7248 C   0  0  0  0  0  0  0  0  0  4  0  0
    1.9794    0.6737   -0.8139 C   0  0  0  0  0  0  0  0  0  5  0  0
    1.3136   -0.3931   -0.2207 C   0  0  0  0  0  0  0  0  0  6  0  0
    0.1218   -0.1757    0.4617 C   0  0  0  0  0  0  0  0  0  7  0  0
  7  2  4  0
  6  7  4  0
  5  6  4  0
  4  5  4  0
  3  4  4  0
  2  3  4  0
  1  2  1  0
M  END