benzene, methyl-
  SciTegic01221516373D

  7  7  0  0  0  0            999 V2000
   -0.8268    0.9758   -0.0009 C   0  0  0  0  0  0  0  0  0  1  0  0
   -0.1319    2.1801   -0.0015 C   0  0  0  0  0  0  0  0  0  2  0  0
    1.2585    2.1806   -0.0010 C   0  0  0  0  0  0  0  0  0  3  0  0
    1.9542    0.9766    0.0003 C   0  0  0  0  0  0  0  0  0  4  0  0
    1.2594   -0.2277    0.0009 C   0  0  0  0  0  0  0  0  0  5  0  0
   -0.1310   -0.2280    0.0004 C   0  0  0  0  0  0  0  0  0  6  0  0
   -0.8810   -1.5280    0.0011 C   0  0  0  0  0  0  0  0  0  7  0  0
  6  7  1  0
  6  1  4  0
  5  6  4  0
  4  5  4  0
  3  4  4  0
  2  3  4  0
  1  2  4  0
M  END