benzene, chloro-
  SciTegic01221516373D

  7  7  0  0  0  0            999 V2000
   -0.9697    0.7272    0.0007 C   0  0  0  0  0  0  0  0  0  1  0  0
   -0.2750    1.9316    0.0002 C   0  0  0  0  0  0  0  0  0  2  0  0
    1.1154    1.9320   -0.0003 C   0  0  0  0  0  0  0  0  0  3  0  0
    1.8113    0.7283   -0.0003 C   0  0  0  0  0  0  0  0  0  4  0  0
    1.1166   -0.4761    0.0003 C   0  0  0  0  0  0  0  0  0  5  0  0
   -0.2738   -0.4766    0.0007 C   0  0  0  0  0  0  0  0  0  6  0  0
    1.9787    3.4288   -0.0009 Cl  0  0  0  0  0  0  0  0  0  7  0  0
  3  7  1  0
  6  1  4  0
  5  6  4  0
  4  5  4  0
  3  4  4  0
  2  3  4  0
  1  2  4  0
M  END