cyclohexanone
  SciTegic01221516373D

  7  7  0  0  0  0            999 V2000
   -0.6233    1.6311    0.6462 C   0  0  0  0  0  0  0  0  0  1  0  0
    0.4539    0.9651   -0.2333 C   0  0  0  0  0  0  0  0  0  2  0  0
    0.0172   -0.3705   -0.8091 C   0  0  0  0  0  0  0  0  0  3  0  0
    0.7150   -0.8960   -1.6836 O   0  0  0  0  0  0  0  0  0  4  0  0
   -1.0967   -1.1906   -0.1806 C   0  0  0  0  0  0  0  0  0  5  0  0
   -2.0505   -0.3531    0.6948 C   0  0  0  0  0  0  0  0  0  6  0  0
   -1.2664    0.6107    1.5879 C   0  0  0  0  0  0  0  0  0  7  0  0
  7  1  1  0
  6  7  1  0
  5  6  1  0
  3  5  1  0
  3  4  2  0
  2  3  1  0
  1  2  1  0
M  END