phenol
  SciTegic01221516373D

  7  7  0  0  0  0            999 V2000
   -0.8344    0.9621    0.0016 C   0  0  0  0  0  0  0  0  0  1  0  0
   -0.1391    2.1662    0.0014 C   0  0  0  0  0  0  0  0  0  2  0  0
    1.2513    2.1660   -0.0002 C   0  0  0  0  0  0  0  0  0  3  0  0
    1.9466    0.9618   -0.0016 C   0  0  0  0  0  0  0  0  0  4  0  0
    1.2513   -0.2423   -0.0014 C   0  0  0  0  0  0  0  0  0  5  0  0
   -0.1391   -0.2420    0.0002 C   0  0  0  0  0  0  0  0  0  6  0  0
   -0.8346   -1.4464    0.0004 O   0  0  0  0  0  0  0  0  0  7  0  0
  6  7  1  0
  6  1  4  0
  5  6  4  0
  4  5  4  0
  3  4  4  0
  2  3  4  0
  1  2  4  0
M  END