pyridine, 3-methyl-
  SciTegic01221516373D

  7  7  0  0  0  0            999 V2000
   -0.9425    0.9820   -0.0020 C   0  0  0  0  0  0  0  0  0  1  0  0
   -0.2134    2.1659   -0.0012 C   0  0  0  0  0  0  0  0  0  2  0  0
    1.1161    2.1442    0.0001 N   0  0  0  0  0  0  0  0  0  3  0  0
    1.7926    0.9998    0.0007 C   0  0  0  0  0  0  0  0  0  4  0  0
    1.1216   -0.2177   -0.0001 C   0  0  0  0  0  0  0  0  0  5  0  0
   -0.2664   -0.2305   -0.0014 C   0  0  0  0  0  0  0  0  0  6  0  0
    1.8909   -1.5066    0.0006 C   0  0  0  0  0  0  0  0  0  7  0  0
  5  7  1  0
  6  1  4  0
  5  6  4  0
  4  5  4  0
  3  4  4  0
  2  3  4  0
  1  2  4  0
M  END