furan, tetrahydro-
  SciTegic01221516373D

  5  5  0  0  0  0            999 V2000
   -0.2066   -0.2638    0.2963 C   0  0  0  0  0  0  0  0  0  1  0  0
   -0.6243    1.1191   -0.2040 C   0  0  0  0  0  0  0  0  0  2  0  0
    0.5565    1.9538    0.0001 O   0  0  0  0  0  0  0  0  0  3  0  0
    1.6808    1.0444    0.2036 C   0  0  0  0  0  0  0  0  0  4  0  0
    1.1746   -0.3082   -0.2976 C   0  0  0  0  0  0  0  0  0  5  0  0
  5  1  1  0
  4  5  1  0
  3  4  1  0
  2  3  1  0
  1  2  1  0
M  END