furan
  SciTegic01221516373D

  5  5  0  0  0  0            999 V2000
   -0.4744    1.1683   -0.0008 C   0  0  0  0  0  0  0  0  0  1  0  0
    0.7240    1.8601   -0.0008 C   0  0  0  0  0  0  0  0  0  2  0  0
    1.7166    0.8896   -0.0016 C   0  0  0  0  0  0  0  0  0  3  0  0
    1.1609   -0.2808   -0.0020 O   0  0  0  0  0  0  0  0  0  4  0  0
   -0.1304   -0.1766   -0.0016 C   0  0  0  0  0  0  0  0  0  5  0  0
  5  1  4  0
  4  5  4  0
  3  4  4  0
  2  3  4  0
  1  2  4  0
M  END