2-heptanone
  SciTegic01221516373D

  8  7  0  0  0  0            999 V2000
   -0.3884    2.0239   -2.0677 C   0  0  0  0  0  0  0  0  0  1  0  0
   -0.2498    2.4051   -0.5777 C   0  0  0  0  0  0  0  0  0  2  0  0
    1.2148    2.2036   -0.1189 C   0  0  0  0  0  0  0  0  0  3  0  0
    1.7229    0.7132   -0.1424 C   0  0  0  0  0  0  0  0  0  4  0  0
    1.1421   -0.1873    1.0081 C   0  0  0  0  0  0  0  0  0  5  0  0
   -0.2638   -0.6986    0.7754 C   0  0  0  0  0  0  0  0  0  6  0  0
   -0.8033   -0.5819   -0.3293 O   0  0  0  0  0  0  0  0  0  7  0  0
   -0.9770   -1.4311    1.8738 C   0  0  0  0  0  0  0  0  0  8  0  0
  6  8  1  0
  6  7  2  0
  5  6  1  0
  4  5  1  0
  3  4  1  0
  2  3  1  0
  1  2  1  0
M  END