ethene, (2-chloroethoxy)-
  SciTegic01221516373D

  6  5  0  0  0  0            999 V2000
   -0.3384   -0.7372    0.4861 C   0  0  0  0  0  0  0  0  0  1  0  0
    0.9529   -1.0732    0.5051 C   0  0  0  0  0  0  0  0  0  2  0  0
    1.9488   -0.2088    1.0182 O   0  0  0  0  0  0  0  0  0  3  0  0
    1.4170    1.0612    1.4532 C   0  0  0  0  0  0  0  0  0  4  0  0
    1.7569    2.1836    0.4314 C   0  0  0  0  0  0  0  0  0  5  0  0
    1.0623    1.8320   -1.1568 Cl  0  0  0  0  0  0  0  0  0  6  0  0
  5  6  1  0
  4  5  1  0
  3  4  1  0
  2  3  1  0
  1  2  2  0
M  END