pyridine
  SciTegic01221516373D

  6  6  0  0  0  0            999 V2000
   -0.8785    0.8697    0.0003 C   0  0  0  0  0  0  0  0  0  1  0  0
   -0.1538    2.0563    0.0001 C   0  0  0  0  0  0  0  0  0  2  0  0
    1.1756    2.0386    0.0001 N   0  0  0  0  0  0  0  0  0  3  0  0
    1.8557    0.8962    0.0003 C   0  0  0  0  0  0  0  0  0  4  0  0
    1.1905   -0.3247    0.0006 C   0  0  0  0  0  0  0  0  0  5  0  0
   -0.1977   -0.3402    0.0005 C   0  0  0  0  0  0  0  0  0  6  0  0
  6  1  4  0
  5  6  4  0
  4  5  4  0
  3  4  4  0
  2  3  4  0
  1  2  4  0
M  END