1-hexanol
  SciTegic01221516373D

  7  6  0  0  0  0            999 V2000
    0.8290    1.8095   -0.5001 C   0  0  0  0  0  0  0  0  0  1  0  0
    1.8888    1.5026    0.5856 C   0  0  0  0  0  0  0  0  0  2  0  0
    1.7801    0.0666    1.2243 C   0  0  0  0  0  0  0  0  0  3  0  0
    0.5482   -0.1565    2.1854 C   0  0  0  0  0  0  0  0  0  4  0  0
   -0.8570   -0.3118    1.5112 C   0  0  0  0  0  0  0  0  0  5  0  0
   -0.9740   -1.6186    0.6737 C   0  0  0  0  0  0  0  0  0  6  0  0
   -0.0803   -1.6118   -0.4432 O   0  0  0  0  0  0  0  0  0  7  0  0
  6  7  1  0
  5  6  1  0
  4  5  1  0
  3  4  1  0
  2  3  1  0
  1  2  1  0
M  END