propane, 1,1'-oxybis-
  SciTegic01221516373D

  7  6  0  0  0  0            999 V2000
   -0.8409    0.9733    0.4628 C   0  0  0  0  0  0  0  0  0  1  0  0
   -0.8060   -0.5740    0.4081 C   0  0  0  0  0  0  0  0  0  2  0  0
   -0.0432   -1.1315    1.6320 C   0  0  0  0  0  0  0  0  0  3  0  0
    0.4864    1.5238    0.3719 O   0  0  0  0  0  0  0  0  0  4  0  0
    1.0427    1.2828   -0.9330 C   0  0  0  0  0  0  0  0  0  5  0  0
    2.4599    1.8809   -1.0060 C   0  0  0  0  0  0  0  0  0  6  0  0
    3.3530    1.2206    0.0609 C   0  0  0  0  0  0  0  0  0  7  0  0
  6  7  1  0
  5  6  1  0
  4  5  1  0
  1  4  1  0
  2  3  1  0
  1  2  1  0
M  END