ethane, 1,1'-oxybis 2-chloro-
  SciTegic01221516373D

  7  6  0  0  0  0            999 V2000
   -0.3219    1.1099   -1.1822 Cl  0  0  0  0  0  0  0  0  0  1  0  0
    0.9696    1.8279   -0.2006 C   0  0  0  0  0  0  0  0  0  2  0  0
    1.5854    0.8326    0.8381 C   0  0  0  0  0  0  0  0  0  3  0  0
    0.6717    0.4664    1.9108 O   0  0  0  0  0  0  0  0  0  4  0  0
   -0.3926   -0.4591    1.5497 C   0  0  0  0  0  0  0  0  0  5  0  0
    0.0942   -1.9340    1.3589 C   0  0  0  0  0  0  0  0  0  6  0  0
    1.1332   -2.1532   -0.0621 Cl  0  0  0  0  0  0  0  0  0  7  0  0
  6  7  1  0
  5  6  1  0
  4  5  1  0
  3  4  1  0
  2  3  1  0
  1  2  1  0
M  END