ethane, 1,1'- methylenebis(oxy) bis 2-chloro-
  SciTegic01221516373D

  9  8  0  0  0  0            999 V2000
   -0.3304   -0.6419   -1.7203 Cl  0  0  0  0  0  0  0  0  0  1  0  0
    0.5285   -1.7839   -0.6711 C   0  0  0  0  0  0  0  0  0  2  0  0
   -0.1576   -1.9762    0.7223 C   0  0  0  0  0  0  0  0  0  3  0  0
   -0.0186   -0.8627    1.6698 O   0  0  0  0  0  0  0  0  0  4  0  0
   -0.7799    0.3213    1.3456 C   0  0  0  0  0  0  0  0  0  5  0  0
   -0.1397    1.1515    0.3517 O   0  0  0  0  0  0  0  0  0  6  0  0
    0.9201    2.0325    0.8592 C   0  0  0  0  0  0  0  0  0  7  0  0
    2.2514    1.3307    1.2887 C   0  0  0  0  0  0  0  0  0  8  0  0
    2.1105    0.4412    2.8157 Cl  0  0  0  0  0  0  0  0  0  9  0  0
  8  9  1  0
  7  8  1  0
  6  7  1  0
  5  6  1  0
  4  5  1  0
  3  4  1  0
  2  3  1  0
  1  2  1  0
M  END