anthracene
  SciTegic01221516373D

 14 16  0  0  0  0            999 V2000
   -2.7397    4.0175    1.4866 C   0  0  0  0  0  0  0  0  0  1  0  0
   -3.3171    3.6706    0.2702 C   0  0  0  0  0  0  0  0  0  2  0  0
   -2.7013    2.7315   -0.5493 C   0  0  0  0  0  0  0  0  0  3  0  0
   -1.5080    2.1394   -0.1522 C   0  0  0  0  0  0  0  0  0  4  0  0
   -0.9303    2.4865    1.0646 C   0  0  0  0  0  0  0  0  0  5  0  0
   -1.5462    3.4255    1.8839 C   0  0  0  0  0  0  0  0  0  6  0  0
    0.2628    1.8947    1.4621 C   0  0  0  0  0  0  0  0  0  7  0  0
    0.8783    0.9559    0.6426 C   0  0  0  0  0  0  0  0  0  8  0  0
    0.3007    0.6089   -0.5742 C   0  0  0  0  0  0  0  0  0  9  0  0
   -0.8925    1.2006   -0.9717 C   0  0  0  0  0  0  0  0  0 10  0  0
    0.9165   -0.3301   -1.3935 C   0  0  0  0  0  0  0  0  0 11  0  0
    2.1100   -0.9222   -0.9962 C   0  0  0  0  0  0  0  0  0 12  0  0
    2.6874   -0.5753    0.2202 C   0  0  0  0  0  0  0  0  0 13  0  0
    2.0716    0.3639    1.0398 C   0  0  0  0  0  0  0  0  0 14  0  0
 14  8  4  0
 13 14  4  0
 12 13  4  0
 11 12  4  0
  9 11  4  0
 10  4  4  0
  9 10  4  0
  8  9  4  0
  7  8  4  0
  5  7  4  0
  6  1  4  0
  5  6  4  0
  4  5  4  0
  3  4  4  0
  2  3  4  0
  1  2  4  0
M  END