benzene, 1,2,4-trichloro-
  SciTegic01221516373D

  9  9  0  0  0  0            999 V2000
   -2.0410    1.2304    1.3352 Cl  0  0  0  0  0  0  0  0  0  1  0  0
   -0.5122    1.0512    0.5510 C   0  0  0  0  0  0  0  0  0  2  0  0
    0.0791    2.1424   -0.0755 C   0  0  0  0  0  0  0  0  0  3  0  0
    1.3095    1.9994   -0.7069 C   0  0  0  0  0  0  0  0  0  4  0  0
    1.9484    0.7645   -0.7117 C   0  0  0  0  0  0  0  0  0  5  0  0
    1.3570   -0.3267   -0.0852 C   0  0  0  0  0  0  0  0  0  6  0  0
    0.1266   -0.1836    0.5463 C   0  0  0  0  0  0  0  0  0  7  0  0
    2.1512   -1.8611   -0.0913 Cl  0  0  0  0  0  0  0  0  0  8  0  0
   -0.7159    3.6762   -0.0688 Cl  0  0  0  0  0  0  0  0  0  9  0  0
  3  9  1  0
  6  8  1  0
  7  2  4  0
  6  7  4  0
  5  6  4  0
  4  5  4  0
  3  4  4  0
  2  3  4  0
  1  2  1  0
M  END