phenol, 2,4-dichloro-
  SciTegic01221516373D

  9  9  0  0  0  0            999 V2000
   -0.7848    0.8346    0.0010 C   0  0  0  0  0  0  0  0  0  1  0  0
   -0.0879    2.0376    0.0005 C   0  0  0  0  0  0  0  0  0  2  0  0
    1.3025    2.0348   -0.0001 C   0  0  0  0  0  0  0  0  0  3  0  0
    1.9957    0.8295   -0.0002 C   0  0  0  0  0  0  0  0  0  4  0  0
    1.2987   -0.3734    0.0003 C   0  0  0  0  0  0  0  0  0  5  0  0
   -0.0917   -0.3706    0.0009 C   0  0  0  0  0  0  0  0  0  6  0  0
   -0.7897   -1.5733    0.0014 O   0  0  0  0  0  0  0  0  0  7  0  0
    2.1689    3.5295   -0.0007 Cl  0  0  0  0  0  0  0  0  0  8  0  0
   -2.5123    0.8366    0.0017 Cl  0  0  0  0  0  0  0  0  0  9  0  0
  1  9  1  0
  3  8  1  0
  6  7  1  0
  6  1  4  0
  5  6  4  0
  4  5  4  0
  3  4  4  0
  2  3  4  0
  1  2  4  0
M  END