benzene, 1-methyl-2,4-dinitro-
  SciTegic01221516373D

 13 13  0  0  0  0            999 V2000
   -0.5262    2.5483   -0.2039 N   0  3  0  0  0  0  0  0  0  1  0  0
   -0.7987    3.2330   -1.3041 O   0  0  0  0  0  0  0  0  0  2  0  0
   -1.0361    2.9285    0.9575 O   0  5  0  0  0  0  0  0  0  3  0  0
    0.2977    1.4267   -0.2682 C   0  0  0  0  0  0  0  0  0  4  0  0
    0.8333    1.0258   -1.4836 C   0  0  0  0  0  0  0  0  0  5  0  0
    1.6531   -0.0937   -1.5351 C   0  0  0  0  0  0  0  0  0  6  0  0
    1.9450   -0.8195   -0.3843 C   0  0  0  0  0  0  0  0  0  7  0  0
    1.4047   -0.4161    0.8452 C   0  0  0  0  0  0  0  0  0  8  0  0
    1.6321   -1.0812    2.0981 N   0  3  0  0  0  0  0  0  0  9  0  0
    2.3879   -2.1634    2.2291 O   0  0  0  0  0  0  0  0  0 10  0  0
    1.0546   -0.5857    3.1817 O   0  5  0  0  0  0  0  0  0 11  0  0
    0.5846    0.7073    0.8844 C   0  0  0  0  0  0  0  0  0 12  0  0
    2.8444   -2.0204   -0.5382 C   0  0  0  0  0  0  0  0  0 13  0  0
  7 13  1  0
 12  4  4  0
  8 12  4  0
  9 11  1  0
  9 10  2  0
  8  9  1  0
  7  8  4  0
  6  7  4  0
  5  6  4  0
  4  5  4  0
  1  4  1  0
  1  3  1  0
  1  2  2  0
M CHG   4   1   1   3  -1   9   1  11  -1
M  END