benzenamine, n,n-dimethyl-
  SciTegic01221516373D

  9  9  0  0  0  0            999 V2000
   -1.0230    1.2218   -0.3357 C   0  0  0  0  0  0  0  0  0  1  0  0
   -0.2963    2.3970   -0.1831 C   0  0  0  0  0  0  0  0  0  2  0  0
    1.0588    2.3412    0.1227 C   0  0  0  0  0  0  0  0  0  3  0  0
    1.6867    1.1102    0.2758 C   0  0  0  0  0  0  0  0  0  4  0  0
    0.9610   -0.0667    0.1235 C   0  0  0  0  0  0  0  0  0  5  0  0
   -0.3946   -0.0090   -0.1825 C   0  0  0  0  0  0  0  0  0  6  0  0
    1.5955   -1.3099    0.2782 N   0  0  0  0  0  0  0  0  0  7  0  0
    0.8474   -2.5265    0.1211 C   0  0  0  0  0  0  0  0  0  8  0  0
    2.9958   -1.3713    0.5942 C   0  0  0  0  0  0  0  0  0  9  0  0
  7  9  1  0
  7  8  1  0
  5  7  1  0
  6  1  4  0
  5  6  4  0
  4  5  4  0
  3  4  4  0
  2  3  4  0
  1  2  4  0
M  END