malathion
  SciTegic01221516373D

 20 19  0  0  0  0            999 V2000
    1.3213    3.8483   -0.5601 C   0  0  0  0  0  0  0  0  0  1  0  0
    0.8192    3.1801   -1.7226 O   0  0  0  0  0  0  0  0  0  2  0  0
   -0.7118    2.9783   -1.5853 P   0  0  0  0  0  0  0  0  0  3  0  0
   -1.4698    4.4992   -1.4067 S   0  0  0  0  0  0  0  0  0  4  0  0
   -1.0823    1.8928   -0.0290 S   0  0  0  0  0  0  0  0  0  5  0  0
   -0.2658    0.2785   -0.1722 C   0  0  1  0  0  0  0  0  0  6  0  0
    0.8210    0.4087   -0.2762 H   0  0  0  0  0  0  0  0  0  7  0  0
   -0.5243   -0.5583    1.0463 C   0  0  0  0  0  0  0  0  0  8  0  0
   -1.1659   -0.0767    1.9890 O   0  0  0  0  0  0  0  0  0  9  0  0
   -0.0181   -1.8681    1.1046 O   0  0  0  0  0  0  0  0  0 10  0  0
   -0.3769   -2.5372    2.3284 C   0  0  0  0  0  0  0  0  0 11  0  0
   -1.8760   -2.9278    2.3192 C   0  0  0  0  0  0  0  0  0 12  0  0
   -0.7314   -0.4920   -1.4299 C   0  0  0  0  0  0  0  0  0 13  0  0
   -2.2241   -0.7339   -1.4160 C   0  0  0  0  0  0  0  0  0 14  0  0
   -2.9214   -0.2960   -0.4922 O   0  0  0  0  0  0  0  0  0 15  0  0
   -2.8037   -1.4706   -2.4628 O   0  0  0  0  0  0  0  0  0 16  0  0
   -4.2327   -1.5878   -2.3185 C   0  0  0  0  0  0  0  0  0 17  0  0
   -4.9305   -0.2428   -2.6445 C   0  0  0  0  0  0  0  0  0 18  0  0
   -1.2598    2.2827   -2.8577 O   0  0  0  0  0  0  0  0  0 19  0  0
   -0.9815    3.0911   -4.0027 C   0  0  0  0  0  0  0  0  0 20  0  0
 19 20  1  0
  3 19  1  0
 17 18  1  0
 16 17  1  0
 14 16  1  0
 14 15  2  0
 13 14  1  0
  6 13  1  0
 11 12  1  0
 10 11  1  0
  8 10  1  0
  8  9  2  0
  6  8  1  0
  6  7  1  0
  5  6  1  0
  3  5  1  0
  3  4  2  0
  2  3  1  0
  1  2  1  0
M  END