benzenamine, n-phenyl-
  SciTegic01221516373D

 13 14  0  0  0  0            999 V2000
   -0.2971    5.5420    0.9091 C   0  0  0  0  0  0  0  0  0  1  0  0
   -0.6677    4.2058    1.0077 C   0  0  0  0  0  0  0  0  0  2  0  0
    0.1206    3.2063    0.4452 C   0  0  0  0  0  0  0  0  0  3  0  0
    1.2946    3.5678   -0.2112 C   0  0  0  0  0  0  0  0  0  4  0  0
    1.6710    4.9024   -0.3120 C   0  0  0  0  0  0  0  0  0  5  0  0
    0.8737    5.8925    0.2480 C   0  0  0  0  0  0  0  0  0  6  0  0
   -0.3220    1.8416    0.5965 N   0  0  0  0  0  0  0  0  0  7  0  0
    0.1833    0.6540   -0.0481 C   0  0  0  0  0  0  0  0  0  8  0  0
    1.0702    0.6775   -1.1217 C   0  0  0  0  0  0  0  0  0  9  0  0
    1.5103   -0.5045   -1.7066 C   0  0  0  0  0  0  0  0  0 10  0  0
    1.0631   -1.7271   -1.2221 C   0  0  0  0  0  0  0  0  0 11  0  0
    0.1744   -1.7613   -0.1544 C   0  0  0  0  0  0  0  0  0 12  0  0
   -0.2630   -0.5762    0.4256 C   0  0  0  0  0  0  0  0  0 13  0  0
 13  8  4  0
 12 13  4  0
 11 12  4  0
 10 11  4  0
  9 10  4  0
  8  9  4  0
  7  8  1  0
  3  7  1  0
  6  1  4  0
  5  6  4  0
  4  5  4  0
  3  4  4  0
  2  3  4  0
  1  2  4  0
M  END