butanal
  SciTegic01221516373D

  5  4  0  0  0  0            999 V2000
    1.1017    2.3488    0.3896 C   0  0  0  0  0  0  0  0  0  1  0  0
    1.5604    1.1489   -0.4702 C   0  0  0  0  0  0  0  0  0  2  0  0
    1.1557   -0.1870    0.2006 C   0  0  0  0  0  0  0  0  0  3  0  0
   -0.3465   -0.3511    0.2493 C   0  0  0  0  0  0  0  0  0  4  0  0
   -1.0926    0.4174   -0.3694 O   0  0  0  0  0  0  0  0  0  5  0  0
  4  5  2  0
  3  4  1  0
  2  3  1  0
  1  2  1  0
M  END