acetic acid, butyl ester
  SciTegic01221516373D

  8  7  0  0  0  0            999 V2000
    0.6400   -0.0491   -1.2317 C   0  0  0  0  0  0  0  0  0  1  0  0
    1.8720   -0.1331   -1.1778 O   0  0  0  0  0  0  0  0  0  2  0  0
    0.0161    0.8556   -2.2745 C   0  0  0  0  0  0  0  0  0  3  0  0
   -0.1402   -0.8457   -0.3439 O   0  0  0  0  0  0  0  0  0  4  0  0
   -1.5732   -0.6610   -0.4686 C   0  0  0  0  0  0  0  0  0  5  0  0
   -2.1322    0.5231    0.4054 C   0  0  0  0  0  0  0  0  0  6  0  0
   -2.0156    0.2582    1.9377 C   0  0  0  0  0  0  0  0  0  7  0  0
   -0.5494    0.2098    2.4174 C   0  0  0  0  0  0  0  0  0  8  0  0
  7  8  1  0
  6  7  1  0
  5  6  1  0
  4  5  1  0
  1  4  1  0
  1  3  1  0
  1  2  2  0
M  END