1,4-dioxane
  SciTegic01221516373D

  6  6  0  0  0  0            999 V2000
    0.2491   -0.7704   -0.2663 C   0  0  0  0  0  0  0  0  0  1  0  0
   -0.8845    0.1344    0.2670 C   0  0  0  0  0  0  0  0  0  2  0  0
   -0.6813    1.4780   -0.2000 O   0  0  0  0  0  0  0  0  0  3  0  0
    0.5839    1.9743    0.2664 C   0  0  0  0  0  0  0  0  0  4  0  0
    1.7174    1.0694   -0.2669 C   0  0  0  0  0  0  0  0  0  5  0  0
    1.5143   -0.2742    0.2000 O   0  0  0  0  0  0  0  0  0  6  0  0
  6  1  1  0
  5  6  1  0
  4  5  1  0
  3  4  1  0
  2  3  1  0
  1  2  1  0
M  END