1,3-butadiene, 2-chloro-
  SciTegic01221516373D

  5  4  0  0  0  0            999 V2000
    1.8988   -0.4645   -1.1966 C   0  0  0  0  0  0  0  0  0  1  0  0
    1.1286   -0.0053   -0.2127 C   0  0  0  0  0  0  0  0  0  2  0  0
   -0.2624    0.3571   -0.4814 C   0  0  0  0  0  0  0  0  0  3  0  0
   -1.0316    0.8163    0.5033 C   0  0  0  0  0  0  0  0  0  4  0  0
    1.7722    0.1629    1.3824 Cl  0  0  0  0  0  0  0  0  0  5  0  0
  2  5  1  0
  3  4  2  0
  2  3  1  0
  1  2  2  0
M  END