1,2-benzenedicarboxylic acid, dimethyl ester
  SciTegic01221516373D

 14 14  0  0  0  0            999 V2000
    3.8176   -0.2226   -0.0007 C   0  0  0  0  0  0  0  0  0  1  0  0
    3.1228   -1.4217    0.0108 C   0  0  0  0  0  0  0  0  0  2  0  0
    1.7349   -1.4069    0.0141 C   0  0  0  0  0  0  0  0  0  3  0  0
    1.0186   -0.2131    0.0061 C   0  0  0  0  0  0  0  0  0  4  0  0
    1.7231    1.0039   -0.0056 C   0  0  0  0  0  0  0  0  0  5  0  0
    3.1150    0.9745   -0.0088 C   0  0  0  0  0  0  0  0  0  6  0  0
    1.1230    2.3756   -0.0154 C   0  0  0  0  0  0  0  0  0  7  0  0
    1.8921    3.3435   -0.0252 O   0  0  0  0  0  0  0  0  0  8  0  0
   -0.2378    2.6188   -0.0140 O   0  0  0  0  0  0  0  0  0  9  0  0
   -0.4804    4.0288   -0.0249 C   0  0  0  0  0  0  0  0  0 10  0  0
   -0.4644   -0.3678    0.0110 C   0  0  0  0  0  0  0  0  0 11  0  0
   -1.2401    0.5870    0.0051 O   0  0  0  0  0  0  0  0  0 12  0  0
   -0.9927   -1.6564    0.0228 O   0  0  0  0  0  0  0  0  0 13  0  0
   -2.4221   -1.5942    0.0258 C   0  0  0  0  0  0  0  0  0 14  0  0
 13 14  1  0
 11 13  1  0
 11 12  2  0
  4 11  1  0
  9 10  1  0
  7  9  1  0
  7  8  2  0
  5  7  1  0
  6  1  4  0
  5  6  4  0
  4  5  4  0
  3  4  4  0
  2  3  4  0
  1  2  4  0
M  END