dibenzofuran
  SciTegic01221516373D

 13 15  0  0  0  0            999 V2000
   -0.1708    4.7288    0.6001 C   0  0  0  0  0  0  0  0  0  1  0  0
    0.6329    3.7044    0.1008 C   0  0  0  0  0  0  0  0  0  2  0  0
    0.1416    2.4178    0.2402 C   0  0  0  0  0  0  0  0  0  3  0  0
   -1.0670    2.1289    0.8325 C   0  0  0  0  0  0  0  0  0  4  0  0
   -1.8713    3.1415    1.3312 C   0  0  0  0  0  0  0  0  0  5  0  0
   -1.4020    4.4501    1.2049 C   0  0  0  0  0  0  0  0  0  6  0  0
   -1.2893    0.8452    0.8348 O   0  0  0  0  0  0  0  0  0  7  0  0
   -0.2690    0.2705    0.2637 C   0  0  0  0  0  0  0  0  0  8  0  0
    0.6632    1.2032   -0.1316 C   0  0  0  0  0  0  0  0  0  9  0  0
    1.8486    0.8734   -0.7657 C   0  0  0  0  0  0  0  0  0 10  0  0
    2.0679   -0.4844   -0.9955 C   0  0  0  0  0  0  0  0  0 11  0  0
    1.1291   -1.4440   -0.5991 C   0  0  0  0  0  0  0  0  0 12  0  0
   -0.0582   -1.0807    0.0389 C   0  0  0  0  0  0  0  0  0 13  0  0
 13  8  4  0
 12 13  4  0
 11 12  4  0
 10 11  4  0
  9 10  4  0
  9  3  4  0
  8  9  4  0
  7  8  4  0
  4  7  4  0
  6  1  4  0
  5  6  4  0
  4  5  4  0
  3  4  4  0
  2  3  4  0
  1  2  4  0
M  END