1-naphthalenamine
  SciTegic01221516373D

 11 12  0  0  0  0            999 V2000
   -0.2373    3.1098    0.2559 C   0  0  0  0  0  0  0  0  0  1  0  0
   -1.2689    3.2204    1.1812 C   0  0  0  0  0  0  0  0  0  2  0  0
   -1.7177    2.0934    1.8607 C   0  0  0  0  0  0  0  0  0  3  0  0
   -1.1350    0.8551    1.6154 C   0  0  0  0  0  0  0  0  0  4  0  0
   -0.1034    0.7443    0.6902 C   0  0  0  0  0  0  0  0  0  5  0  0
    0.3453    1.8718    0.0107 C   0  0  0  0  0  0  0  0  0  6  0  0
    1.3767    1.7612   -0.9144 C   0  0  0  0  0  0  0  0  0  7  0  0
    1.9600    0.5234   -1.1604 C   0  0  0  0  0  0  0  0  0  8  0  0
    1.5115   -0.6037   -0.4810 C   0  0  0  0  0  0  0  0  0  9  0  0
    0.4797   -0.4934    0.4443 C   0  0  0  0  0  0  0  0  0 10  0  0
    1.8259    2.8929   -1.5955 N   0  0  0  0  0  0  0  0  0 11  0  0
  7 11  1  0
 10  5  4  0
  9 10  4  0
  8  9  4  0
  7  8  4  0
  6  7  4  0
  6  1  4  0
  5  6  4  0
  4  5  4  0
  3  4  4  0
  2  3  4  0
  1  2  4  0
M  END