thioperoxydicarbonic diamide, tetramethyl-
  SciTegic01221516373D

 12 11  0  0  0  0            999 V2000
    1.2317    3.8101    0.4623 N   0  0  0  0  0  0  0  0  0  1  0  0
    2.3697    4.2303   -0.3033 C   0  0  0  0  0  0  0  0  0  2  0  0
    0.3642    4.7877    1.0541 C   0  0  0  0  0  0  0  0  0  3  0  0
    0.9678    2.4502    0.6302 C   0  0  0  0  0  0  0  0  0  4  0  0
   -0.2733    1.9921    1.4659 S   0  0  0  0  0  0  0  0  0  5  0  0
    2.0407    1.2434   -0.0993 S   0  0  0  0  0  0  0  0  0  6  0  0
    1.3028   -0.6621    0.2841 S   0  0  0  0  0  0  0  0  0  7  0  0
   -0.2598   -0.8670   -0.5253 C   0  0  0  0  0  0  0  0  0  8  0  0
   -0.8116    0.2596   -1.4607 S   0  0  0  0  0  0  0  0  0  9  0  0
   -0.9989   -2.0339   -0.3276 N   0  0  0  0  0  0  0  0  0 10  0  0
   -2.2651   -2.2009   -0.9811 C   0  0  0  0  0  0  0  0  0 11  0  0
   -0.4945   -3.0642    0.5338 C   0  0  0  0  0  0  0  0  0 12  0  0
 10 12  1  0
 10 11  1  0
  8 10  1  0
  8  9  2  0
  7  8  1  0
  6  7  1  0
  4  6  1  0
  4  5  2  0
  1  4  1  0
  1  3  1  0
  1  2  1  0
M  END