parathion methyl
  SciTegic01221516373D

 16 16  0  0  0  0            999 V2000
   -0.5149   -0.0247   -0.0154 C   0  0  0  0  0  0  0  0  0  1  0  0
    0.1024    1.2057    0.1914 C   0  0  0  0  0  0  0  0  0  2  0  0
   -0.6409    2.3934    0.4338 O   0  0  0  0  0  0  0  0  0  3  0  0
   -2.2073    2.2254    0.4377 P   0  0  0  0  0  0  0  0  0  4  0  0
   -2.7656    1.7009   -1.0929 S   0  0  0  0  0  0  0  0  0  5  0  0
   -2.8407    3.6086    0.7285 O   0  0  0  0  0  0  0  0  0  6  0  0
   -2.4417    4.5370   -0.2837 C   0  0  0  0  0  0  0  0  0  7  0  0
   -2.6675    1.2353    1.5502 O   0  0  0  0  0  0  0  0  0  8  0  0
   -2.3046    1.7450    2.8422 C   0  0  0  0  0  0  0  0  0  9  0  0
    1.4907    1.2841    0.1665 C   0  0  0  0  0  0  0  0  0 10  0  0
    2.2556    0.1465   -0.0643 C   0  0  0  0  0  0  0  0  0 11  0  0
    1.6330   -1.0784   -0.2709 C   0  0  0  0  0  0  0  0  0 12  0  0
    0.2464   -1.1643   -0.2464 C   0  0  0  0  0  0  0  0  0 13  0  0
    2.3985   -2.2196   -0.5024 N   0  3  0  0  0  0  0  0  0 14  0  0
    1.8038   -3.3864   -0.6990 O   0  0  0  0  0  0  0  0  0 15  0  0
    3.7199   -2.1363   -0.5254 O   0  5  0  0  0  0  0  0  0 16  0  0
 14 16  1  0
 14 15  2  0
 12 14  1  0
 13  1  4  0
 12 13  4  0
 11 12  4  0
 10 11  4  0
  2 10  4  0
  8  9  1  0
  4  8  1  0
  6  7  1  0
  4  6  1  0
  4  5  2  0
  3  4  1  0
  2  3  1  0
  1  2  4  0
M CHG   2  14   1  16  -1
M  END