diuron
  SciTegic01221516373D

 14 14  0  0  0  0            999 V2000
    2.6598    1.2078    0.2098 C   0  0  0  0  0  0  0  0  0  1  0  0
    1.2775    1.1187    0.0853 C   0  0  0  0  0  0  0  0  0  2  0  0
    0.5357    2.2768   -0.1283 C   0  0  0  0  0  0  0  0  0  3  0  0
    1.1681    3.5116   -0.2166 C   0  0  0  0  0  0  0  0  0  4  0  0
    2.5497    3.5939   -0.0915 C   0  0  0  0  0  0  0  0  0  5  0  0
    3.2956    2.4410    0.1218 C   0  0  0  0  0  0  0  0  0  6  0  0
    5.0132    2.5409    0.2773 Cl  0  0  0  0  0  0  0  0  0  7  0  0
    3.3393    5.1266   -0.2008 Cl  0  0  0  0  0  0  0  0  0  8  0  0
    0.6669   -0.1607    0.1814 N   0  0  0  0  0  0  0  0  0  9  0  0
   -0.7273   -0.4026    0.0633 C   0  0  0  0  0  0  0  0  0 10  0  0
   -1.5362    0.5100   -0.1397 O   0  0  0  0  0  0  0  0  0 11  0  0
   -1.1979   -1.7103    0.1797 N   0  0  0  0  0  0  0  0  0 12  0  0
   -2.6019   -1.9802    0.0633 C   0  0  0  0  0  0  0  0  0 13  0  0
   -0.2774   -2.7850    0.4160 C   0  0  0  0  0  0  0  0  0 14  0  0
 12 14  1  0
 12 13  1  0
 10 12  1  0
 10 11  2  0
  9 10  1  0
  2  9  1  0
  5  8  1  0
  6  7  1  0
  6  1  4  0
  5  6  4  0
  4  5  4  0
  3  4  4  0
  2  3  4  0
  1  2  4  0
M  END