linuron
  SciTegic01221516373D

 15 15  0  0  0  0            999 V2000
    1.3199    3.6037   -0.1368 C   0  0  0  0  0  0  0  0  0  1  0  0
    2.7082    3.6315   -0.0829 C   0  0  0  0  0  0  0  0  0  2  0  0
    3.4189    2.4468    0.0654 C   0  0  0  0  0  0  0  0  0  3  0  0
    2.7413    1.2365    0.1598 C   0  0  0  0  0  0  0  0  0  4  0  0
    1.3522    1.2012    0.1062 C   0  0  0  0  0  0  0  0  0  5  0  0
    0.6459    2.3916   -0.0426 C   0  0  0  0  0  0  0  0  0  6  0  0
    0.7006   -0.0606    0.2065 N   0  0  0  0  0  0  0  0  0  7  0  0
   -0.7058   -0.2641    0.1425 C   0  0  0  0  0  0  0  0  0  8  0  0
   -1.4655    0.6991   -0.0157 O   0  0  0  0  0  0  0  0  0  9  0  0
   -1.1755   -1.6301    0.2670 N   0  0  0  0  0  0  0  0  0 10  0  0
   -2.4896   -2.0605    0.2294 O   0  0  0  0  0  0  0  0  0 11  0  0
   -3.5204   -1.0769    0.0476 C   0  0  0  0  0  0  0  0  0 12  0  0
   -0.1735   -2.6406    0.4481 C   0  0  0  0  0  0  0  0  0 13  0  0
    5.1449    2.4785    0.1321 Cl  0  0  0  0  0  0  0  0  0 14  0  0
    3.5496    5.1357   -0.2003 Cl  0  0  0  0  0  0  0  0  0 15  0  0
  2 15  1  0
  3 14  1  0
 10 13  1  0
 11 12  1  0
 10 11  1  0
  8 10  1  0
  8  9  2  0
  7  8  1  0
  5  7  1  0
  6  1  4  0
  5  6  4  0
  4  5  4  0
  3  4  4  0
  2  3  4  0
  1  2  4  0
M  END