benzene, fluoro-
  SciTegic01221516373D

  7  7  0  0  0  0            999 V2000
   -0.9952    0.8658   -0.0007 C   0  0  0  0  0  0  0  0  0  1  0  0
   -0.3000    2.0700    0.0000 C   0  0  0  0  0  0  0  0  0  2  0  0
    1.0904    2.0699    0.0010 C   0  0  0  0  0  0  0  0  0  3  0  0
    1.7853    0.8656    0.0014 C   0  0  0  0  0  0  0  0  0  4  0  0
    1.0902   -0.3386    0.0008 C   0  0  0  0  0  0  0  0  0  5  0  0
   -0.3002   -0.3385   -0.0003 C   0  0  0  0  0  0  0  0  0  6  0  0
    3.1260    0.8655    0.0025 F   0  0  0  0  0  0  0  0  0  7  0  0
  4  7  1  0
  6  1  4  0
  5  6  4  0
  4  5  4  0
  3  4  4  0
  2  3  4  0
  1  2  4  0
M  END