benzene, 1,3-dichloro-
  SciTegic01221516373D

  8  8  0  0  0  0            999 V2000
   -1.0309    0.8650   -0.0007 C   0  0  0  0  0  0  0  0  0  1  0  0
   -0.3361    2.0693   -0.0009 C   0  0  0  0  0  0  0  0  0  2  0  0
    1.0543    2.0697   -0.0008 C   0  0  0  0  0  0  0  0  0  3  0  0
    1.7501    0.8660   -0.0005 C   0  0  0  0  0  0  0  0  0  4  0  0
    1.0552   -0.3382   -0.0004 C   0  0  0  0  0  0  0  0  0  5  0  0
   -0.3352   -0.3388   -0.0005 C   0  0  0  0  0  0  0  0  0  6  0  0
    1.9197   -1.8342   -0.0001 Cl  0  0  0  0  0  0  0  0  0  7  0  0
    1.9177    3.5663   -0.0009 Cl  0  0  0  0  0  0  0  0  0  8  0  0
  3  8  1  0
  5  7  1  0
  6  1  4  0
  5  6  4  0
  4  5  4  0
  3  4  4  0
  2  3  4  0
  1  2  4  0
M  END