benzene, iodo-
  SciTegic01221516373D

  7  7  0  0  0  0            999 V2000
   -0.7873    1.0449   -0.0010 C   0  0  0  0  0  0  0  0  0  1  0  0
   -0.0925    2.2492   -0.0004 C   0  0  0  0  0  0  0  0  0  2  0  0
    1.2979    2.2496    0.0001 C   0  0  0  0  0  0  0  0  0  3  0  0
    1.9937    1.0457    0.0001 C   0  0  0  0  0  0  0  0  0  4  0  0
    1.2989   -0.1587   -0.0004 C   0  0  0  0  0  0  0  0  0  5  0  0
   -0.0915   -0.1590   -0.0009 C   0  0  0  0  0  0  0  0  0  6  0  0
   -1.1213   -1.9441   -0.0017 I   0  0  0  0  0  0  0  0  0  7  0  0
  6  7  1  0
  6  1  4  0
  5  6  4  0
  4  5  4  0
  3  4  4  0
  2  3  4  0
  1  2  4  0
M  END