formic acid, butyl ester
  SciTegic01221516373D

  7  6  0  0  0  0            999 V2000
   -0.2226    2.3897    1.0042 C   0  0  0  0  0  0  0  0  0  1  0  0
    0.2796    1.9487   -0.3849 C   0  0  0  0  0  0  0  0  0  2  0  0
    1.4709    0.9709   -0.2230 C   0  0  0  0  0  0  0  0  0  3  0  0
    1.0729   -0.2161    0.4943 O   0  0  0  0  0  0  0  0  0  4  0  0
    0.2805   -1.0733   -0.2943 C   0  0  0  0  0  0  0  0  0  5  0  0
    0.0220   -0.8089   -1.4750 O   0  0  0  0  0  0  0  0  0  6  0  0
   -1.4081    3.3568    0.8371 C   0  0  0  0  0  0  0  0  0  7  0  0
  1  7  1  0
  5  6  2  0
  4  5  1  0
  3  4  1  0
  2  3  1  0
  1  2  1  0
M  END