benzene, pentachloro-
  SciTegic01221516373D

 11 11  0  0  0  0            999 V2000
   -0.9913    0.8661    0.0003 C   0  0  0  0  0  0  0  0  0  1  0  0
   -0.2959    2.0700   -0.0005 C   0  0  0  0  0  0  0  0  0  2  0  0
    1.0943    2.0700   -0.0006 C   0  0  0  0  0  0  0  0  0  3  0  0
    1.7895    0.8663    0.0000 C   0  0  0  0  0  0  0  0  0  4  0  0
    1.0945   -0.3375    0.0008 C   0  0  0  0  0  0  0  0  0  5  0  0
   -0.2957   -0.3377    0.0009 C   0  0  0  0  0  0  0  0  0  6  0  0
   -1.1583   -1.8343    0.0018 Cl  0  0  0  0  0  0  0  0  0  7  0  0
    1.9583   -1.8333    0.0015 Cl  0  0  0  0  0  0  0  0  0  8  0  0
    3.5167    0.8665   -0.0002 Cl  0  0  0  0  0  0  0  0  0  9  0  0
    1.9578    3.5660   -0.0016 Cl  0  0  0  0  0  0  0  0  0 10  0  0
   -1.1588    3.5665   -0.0013 Cl  0  0  0  0  0  0  0  0  0 11  0  0
  2 11  1  0
  3 10  1  0
  4  9  1  0
  5  8  1  0
  6  7  1  0
  6  1  4  0
  5  6  4  0
  4  5  4  0
  3  4  4  0
  2  3  4  0
  1  2  4  0
M  END