acetic acid, pentyl ester
  SciTegic01221516373D

  9  8  0  0  0  0            999 V2000
    1.9879   -0.6280    2.7270 O   0  0  0  0  0  0  0  0  0  1  0  0
    2.1819    0.3359    1.9780 C   0  0  0  0  0  0  0  0  0  2  0  0
    1.1669    0.7329    1.0874 O   0  0  0  0  0  0  0  0  0  3  0  0
    1.5660    1.8655    0.2976 C   0  0  0  0  0  0  0  0  0  4  0  0
    0.4535    2.3084   -0.7006 C   0  0  0  0  0  0  0  0  0  5  0  0
    0.1703    1.2496   -1.8102 C   0  0  0  0  0  0  0  0  0  6  0  0
   -0.4617   -0.0417   -1.2474 C   0  0  0  0  0  0  0  0  0  7  0  0
   -0.7069   -1.0361   -2.3960 C   0  0  0  0  0  0  0  0  0  8  0  0
    3.5034    1.0645    2.0347 C   0  0  0  0  0  0  0  0  0  9  0  0
  2  9  1  0
  7  8  1  0
  6  7  1  0
  5  6  1  0
  4  5  1  0
  3  4  1  0
  2  3  1  0
  1  2  2  0
M  END