benzene, 1,2,3,5-tetrachloro-
  SciTegic01221516373D

 10 10  0  0  0  0            999 V2000
   -1.0024    0.8664   -0.0005 C   0  0  0  0  0  0  0  0  0  1  0  0
   -0.3072    2.0705    0.0002 C   0  0  0  0  0  0  0  0  0  2  0  0
    1.0830    2.0701    0.0007 C   0  0  0  0  0  0  0  0  0  3  0  0
    1.7777    0.8659    0.0005 C   0  0  0  0  0  0  0  0  0  4  0  0
    1.0826   -0.3379   -0.0002 C   0  0  0  0  0  0  0  0  0  5  0  0
   -0.3076   -0.3379   -0.0007 C   0  0  0  0  0  0  0  0  0  6  0  0
    1.9471   -1.8335   -0.0005 Cl  0  0  0  0  0  0  0  0  0  7  0  0
    3.5051    0.8657    0.0011 Cl  0  0  0  0  0  0  0  0  0  8  0  0
    1.9480    3.5654    0.0015 Cl  0  0  0  0  0  0  0  0  0  9  0  0
   -2.7301    0.8667   -0.0011 Cl  0  0  0  0  0  0  0  0  0 10  0  0
  1 10  1  0
  3  9  1  0
  4  8  1  0
  5  7  1  0
  6  1  4  0
  5  6  4  0
  4  5  4  0
  3  4  4  0
  2  3  4  0
  1  2  4  0
M  END