carbamothioic acid, dipropyl-, s-ethyl ester
  SciTegic01221516373D

 12 11  0  0  0  0            999 V2000
    2.6134    2.4347   -0.4419 C   0  0  0  0  0  0  0  0  0  1  0  0
    3.0362    0.9558   -0.3428 C   0  0  0  0  0  0  0  0  0  2  0  0
    1.7890    0.0263    0.5840 S   0  0  0  0  0  0  0  0  0  3  0  0
    0.2416    0.0671   -0.2796 C   0  0  0  0  0  0  0  0  0  4  0  0
    0.1895    0.5641   -1.4099 O   0  0  0  0  0  0  0  0  0  5  0  0
   -0.9107   -0.4792    0.3450 N   0  0  0  0  0  0  0  0  0  6  0  0
   -2.2324   -0.4605   -0.3114 C   0  0  0  0  0  0  0  0  0  7  0  0
   -2.6228    0.9282   -0.8926 C   0  0  0  0  0  0  0  0  0  8  0  0
   -2.7550    1.9700    0.2409 C   0  0  0  0  0  0  0  0  0  9  0  0
   -0.7508   -1.0612    1.6764 C   0  0  0  0  0  0  0  0  0 10  0  0
   -1.7831   -2.1789    2.0067 C   0  0  0  0  0  0  0  0  0 11  0  0
   -1.4814   -3.4745    1.2035 C   0  0  0  0  0  0  0  0  0 12  0  0
 11 12  1  0
 10 11  1  0
  6 10  1  0
  8  9  1  0
  7  8  1  0
  6  7  1  0
  4  6  1  0
  4  5  2  0
  3  4  1  0
  2  3  1  0
  1  2  1  0
M  END