carbofuran
  SciTegic01221516373D

 16 17  0  0  0  0            999 V2000
    4.4407    1.7036    0.3867 C   0  0  0  0  0  0  0  0  0  1  0  0
    4.0246    3.2191    0.2518 C   0  0  0  0  0  0  0  0  0  2  0  0
    2.5606    3.0269    0.3297 C   0  0  0  0  0  0  0  0  0  3  0  0
    2.2346    1.7238    0.0354 C   0  0  0  0  0  0  0  0  0  4  0  0
    3.3456    0.9853   -0.1757 O   0  0  0  0  0  0  0  0  0  5  0  0
    0.9176    1.2928   -0.0149 C   0  0  0  0  0  0  0  0  0  6  0  0
   -0.0694    2.2436    0.2507 C   0  0  0  0  0  0  0  0  0  7  0  0
    0.2605    3.5685    0.5474 C   0  0  0  0  0  0  0  0  0  8  0  0
    1.5902    3.9834    0.5828 C   0  0  0  0  0  0  0  0  0  9  0  0
    0.6571   -0.0813   -0.3261 O   0  0  0  0  0  0  0  0  0 10  0  0
   -0.6975   -0.5375   -0.3781 C   0  0  0  0  0  0  0  0  0 11  0  0
   -1.6697    0.1958   -0.1672 O   0  0  0  0  0  0  0  0  0 12  0  0
   -0.9329   -1.8787   -0.6824 N   0  0  0  0  0  0  0  0  0 13  0  0
   -2.2777   -2.3742   -0.7441 C   0  0  0  0  0  0  0  0  0 14  0  0
    4.4361    1.3396    1.8866 C   0  0  0  0  0  0  0  0  0 15  0  0
    5.8215    1.3894   -0.2146 C   0  0  0  0  0  0  0  0  0 16  0  0
  1 16  1  0
  1 15  1  0
 13 14  1  0
 11 13  1  0
 11 12  2  0
 10 11  1  0
  6 10  1  0
  9  3  4  0
  8  9  4  0
  7  8  4  0
  6  7  4  0
  4  6  4  0
  5  1  1  0
  4  5  1  0
  3  4  4  0
  2  3  1  0
  1  2  1  0
M  END