triallate
  SciTegic01221516373D

 16 15  0  0  0  0            999 V2000
    3.4786    3.2563    0.7324 C   0  0  0  0  0  0  0  0  0  1  0  0
    2.5910    3.8455   -0.3918 C   0  0  0  0  0  0  0  0  0  2  0  0
    2.9563    5.3380   -0.5769 C   0  0  0  0  0  0  0  0  0  3  0  0
    1.1665    3.6631   -0.0827 N   0  0  0  0  0  0  0  0  0  4  0  0
    0.3221    4.8479    0.1184 C   0  0  0  0  0  0  0  0  0  5  0  0
   -0.2991    4.8395    1.5383 C   0  0  0  0  0  0  0  0  0  6  0  0
   -0.8320    4.8734   -0.9143 C   0  0  0  0  0  0  0  0  0  7  0  0
    0.6130    2.3359    0.0236 C   0  0  0  0  0  0  0  0  0  8  0  0
   -0.5770    2.1664    0.3067 O   0  0  0  0  0  0  0  0  0  9  0  0
    1.6074    0.9010   -0.3425 S   0  0  0  0  0  0  0  0  0 10  0  0
    1.1191   -0.4677    0.7381 C   0  0  0  0  0  0  0  0  0 11  0  0
   -0.2891   -0.9167    0.4678 C   0  0  0  0  0  0  0  0  0 12  0  0
   -0.8832   -1.7426    1.3250 C   0  0  0  0  0  0  0  0  0 13  0  0
   -0.0328   -2.2787    2.7317 Cl  0  0  0  0  0  0  0  0  0 14  0  0
   -2.5026   -2.2704    1.0397 Cl  0  0  0  0  0  0  0  0  0 15  0  0
   -1.1374   -0.3746   -0.9391 Cl  0  0  0  0  0  0  0  0  0 16  0  0
 12 16  1  0
 13 15  1  0
 13 14  1  0
 12 13  2  0
 11 12  1  0
 10 11  1  0
  8 10  1  0
  8  9  2  0
  4  8  1  0
  5  7  1  0
  5  6  1  0
  4  5  1  0
  2  4  1  0
  2  3  1  0
  1  2  1  0
M  END