2,8-dichlorodibenzofuran
  SciTegic01221516373D

 15 17  0  0  0  0            999 V2000
    0.2043    0.8407    0.5624 C   0  0  0  0  0  0  0  0  0  1  0  0
    1.1463    0.1083    1.2484 C   0  0  0  0  0  0  0  0  0  2  0  0
    0.8742   -0.3853    2.5143 C   0  0  0  0  0  0  0  0  0  3  0  0
   -0.3841   -0.1069    3.0508 C   0  0  0  0  0  0  0  0  0  4  0  0
   -1.3335    0.6393    2.3425 C   0  0  0  0  0  0  0  0  0  5  0  0
   -1.0504    1.1320    1.0690 C   0  0  0  0  0  0  0  0  0  6  0  0
   -2.8755    0.9541    3.0551 Cl  0  0  0  0  0  0  0  0  0  7  0  0
    2.2373   -0.0198    0.5479 O   0  0  0  0  0  0  0  0  0  8  0  0
    2.0521    0.6031   -0.5813 C   0  0  0  0  0  0  0  0  0  9  0  0
    0.7963    1.1641   -0.6335 C   0  0  0  0  0  0  0  0  0 10  0  0
    0.3294    1.8858   -1.7183 C   0  0  0  0  0  0  0  0  0 11  0  0
    1.2082    2.0279   -2.7918 C   0  0  0  0  0  0  0  0  0 12  0  0
    2.4881    1.4622   -2.7512 C   0  0  0  0  0  0  0  0  0 13  0  0
    2.9322    0.7390   -1.6430 C   0  0  0  0  0  0  0  0  0 14  0  0
    0.7108    2.9133   -4.1894 Cl  0  0  0  0  0  0  0  0  0 15  0  0
 12 15  1  0
 14  9  4  0
 13 14  4  0
 12 13  4  0
 11 12  4  0
 10 11  4  0
 10  1  4  0
  9 10  4  0
  8  9  4  0
  2  8  4  0
  5  7  1  0
  6  1  4  0
  5  6  4  0
  4  5  4  0
  3  4  4  0
  2  3  4  0
  1  2  4  0
M  END