benzene, 1-chloro-4-phenoxy-
  SciTegic01221516373D

 14 15  0  0  0  0            999 V2000
   -0.3644    1.9147    0.7292 O   0  0  0  0  0  0  0  0  0  1  0  0
    0.8488    1.8910    1.5387 C   0  0  0  0  0  0  0  0  0  2  0  0
    0.8332    2.6587    2.6996 C   0  0  0  0  0  0  0  0  0  3  0  0
    1.9371    2.7073    3.5433 C   0  0  0  0  0  0  0  0  0  4  0  0
    3.0801    1.9821    3.2332 C   0  0  0  0  0  0  0  0  0  5  0  0
    4.4548    2.0390    4.2783 Cl  0  0  0  0  0  0  0  0  0  6  0  0
    3.1125    1.2110    2.0788 C   0  0  0  0  0  0  0  0  0  7  0  0
    2.0037    1.1687    1.2414 C   0  0  0  0  0  0  0  0  0  8  0  0
   -0.5500    1.1820   -0.5185 C   0  0  0  0  0  0  0  0  0  9  0  0
   -1.7824    1.3327   -1.1475 C   0  0  0  0  0  0  0  0  0 10  0  0
   -2.0639    0.6789   -2.3417 C   0  0  0  0  0  0  0  0  0 11  0  0
   -1.1084   -0.1413   -2.9275 C   0  0  0  0  0  0  0  0  0 12  0  0
    0.1263   -0.3022   -2.3124 C   0  0  0  0  0  0  0  0  0 13  0  0
    0.3990    0.3555   -1.1184 C   0  0  0  0  0  0  0  0  0 14  0  0
 14  9  4  0
 13 14  4  0
 12 13  4  0
 11 12  4  0
 10 11  4  0
  9 10  4  0
  1  9  1  0
  8  2  4  0
  7  8  4  0
  5  7  4  0
  5  6  1  0
  4  5  4  0
  3  4  4  0
  2  3  4  0
  1  2  1  0
M  END