2,3,3',4',5'-pentachlorobiphenyl  (PCB 122)
  SciTegic01221516373D

 17 18  0  0  0  0            999 V2000
   -0.5140    5.2548    3.5187 Cl  0  0  0  0  0  0  0  0  0  1  0  0
   -0.2763    3.9830    2.3741 C   0  0  0  0  0  0  0  0  0  2  0  0
    0.4245    2.8402    2.7376 C   0  0  0  0  0  0  0  0  0  3  0  0
    0.6140    1.8187    1.8144 C   0  0  0  0  0  0  0  0  0  4  0  0
    0.1082    1.9259    0.5229 C   0  0  0  0  0  0  0  0  0  5  0  0
   -0.5923    3.0745    0.1682 C   0  0  0  0  0  0  0  0  0  6  0  0
   -0.7853    4.0996    1.0870 C   0  0  0  0  0  0  0  0  0  7  0  0
   -1.6579    5.5181    0.6288 Cl  0  0  0  0  0  0  0  0  0  8  0  0
    0.2804    0.8576   -0.5169 C   0  0  0  0  0  0  0  0  0  9  0  0
   -0.2812    1.1145   -1.7644 C   0  0  0  0  0  0  0  0  0 10  0  0
   -0.1821    0.1955   -2.8006 C   0  0  0  0  0  0  0  0  0 11  0  0
    0.4871   -1.0022   -2.5954 C   0  0  0  0  0  0  0  0  0 12  0  0
    1.0521   -1.2714   -1.3556 C   0  0  0  0  0  0  0  0  0 13  0  0
    0.9559   -0.3540   -0.3137 C   0  0  0  0  0  0  0  0  0 14  0  0
    1.7003   -0.7981    1.1919 Cl  0  0  0  0  0  0  0  0  0 15  0  0
    1.8847   -2.7635   -1.1026 Cl  0  0  0  0  0  0  0  0  0 16  0  0
    1.0603    2.6889    4.3364 Cl  0  0  0  0  0  0  0  0  0 17  0  0
  3 17  1  0
 13 16  1  0
 14 15  1  0
 14  9  4  0
 13 14  4  0
 12 13  4  0
 11 12  4  0
 10 11  4  0
  9 10  4  0
  5  9  1  0
  7  8  1  0
  7  2  4  0
  6  7  4  0
  5  6  4  0
  4  5  4  0
  3  4  4  0
  2  3  4  0
  1  2  1  0
M  END