2,7-dichlorodibenzo-p-dioxin
  SciTegic01221516373D

 16 18  0  0  0  0            999 V2000
    4.5917    5.9472   -1.3473 Cl  0  0  0  0  0  0  0  0  0  1  0  0
    4.0242    4.5203   -0.5554 C   0  0  0  0  0  0  0  0  0  2  0  0
    4.2850    4.3255    0.7964 C   0  0  0  0  0  0  0  0  0  3  0  0
    3.8287    3.1776    1.4343 C   0  0  0  0  0  0  0  0  0  4  0  0
    3.1117    2.2250    0.7197 C   0  0  0  0  0  0  0  0  0  5  0  0
    2.6652    1.1026    1.3421 O   0  0  0  0  0  0  0  0  0  6  0  0
    1.9642    0.1707    0.6447 C   0  0  0  0  0  0  0  0  0  7  0  0
    1.7034    0.3657   -0.7074 C   0  0  0  0  0  0  0  0  0  8  0  0
    2.1499    1.4880   -1.3298 O   0  0  0  0  0  0  0  0  0  9  0  0
    2.8509    2.4200   -0.6323 C   0  0  0  0  0  0  0  0  0 10  0  0
    3.3071    3.5676   -1.2702 C   0  0  0  0  0  0  0  0  0 11  0  0
    0.9864   -0.5869   -1.4220 C   0  0  0  0  0  0  0  0  0 12  0  0
    0.5301   -1.7348   -0.7841 C   0  0  0  0  0  0  0  0  0 13  0  0
    0.7909   -1.9297    0.5677 C   0  0  0  0  0  0  0  0  0 14  0  0
    0.2234   -3.3566    1.3596 Cl  0  0  0  0  0  0  0  0  0 15  0  0
    1.5080   -0.9770    1.2825 C   0  0  0  0  0  0  0  0  0 16  0  0
 16  7  4  0
 14 16  4  0
 14 15  1  0
 13 14  4  0
 12 13  4  0
  8 12  4  0
 11  2  4  0
 10 11  4  0
 10  5  4  0
  9 10  1  0
  8  9  1  0
  7  8  4  0
  6  7  1  0
  5  6  1  0
  4  5  4  0
  3  4  4  0
  2  3  4  0
  1  2  1  0
M  END