2,8-dichlorodibenzo-p-dioxin
  SciTegic01221516373D

 16 18  0  0  0  0            999 V2000
    4.9858    7.0368   -0.5539 Cl  0  0  0  0  0  0  0  0  0  1  0  0
    3.9049    5.7909   -0.0395 C   0  0  0  0  0  0  0  0  0  2  0  0
    2.9443    6.0605    0.9289 C   0  0  0  0  0  0  0  0  0  3  0  0
    2.0743    5.0585    1.3434 C   0  0  0  0  0  0  0  0  0  4  0  0
    2.1655    3.7871    0.7889 C   0  0  0  0  0  0  0  0  0  5  0  0
    1.3157    2.8069    1.1932 O   0  0  0  0  0  0  0  0  0  6  0  0
    1.4038    1.5636    0.6520 C   0  0  0  0  0  0  0  0  0  7  0  0
    2.3647    1.2941   -0.3165 C   0  0  0  0  0  0  0  0  0  8  0  0
    3.2145    2.2743   -0.7209 O   0  0  0  0  0  0  0  0  0  9  0  0
    3.1263    3.5175   -0.1797 C   0  0  0  0  0  0  0  0  0 10  0  0
    3.9962    4.5193   -0.5941 C   0  0  0  0  0  0  0  0  0 11  0  0
    2.4559    0.0227   -0.8709 C   0  0  0  0  0  0  0  0  0 12  0  0
    1.5858   -0.9792   -0.4563 C   0  0  0  0  0  0  0  0  0 13  0  0
    1.6984   -2.5599   -1.1448 Cl  0  0  0  0  0  0  0  0  0 14  0  0
    0.6251   -0.7099    0.5121 C   0  0  0  0  0  0  0  0  0 15  0  0
    0.5339    0.5618    1.0665 C   0  0  0  0  0  0  0  0  0 16  0  0
 16  7  4  0
 15 16  4  0
 13 15  4  0
 13 14  1  0
 12 13  4  0
  8 12  4  0
 11  2  4  0
 10 11  4  0
 10  5  4  0
  9 10  1  0
  8  9  1  0
  7  8  4  0
  6  7  1  0
  5  6  1  0
  4  5  4  0
  3  4  4  0
  2  3  4  0
  1  2  1  0
M  END