1,2,4-trichlorodibenzo-p-dioxin
  SciTegic01221516373D

 17 19  0  0  0  0            999 V2000
   -4.1577    0.3067   -0.6899 C   0  0  0  0  0  0  0  0  0  1  0  0
   -3.8710    1.1638   -1.7465 C   0  0  0  0  0  0  0  0  0  2  0  0
   -2.5851    1.6686   -1.9036 C   0  0  0  0  0  0  0  0  0  3  0  0
   -1.5863    1.3158   -1.0035 C   0  0  0  0  0  0  0  0  0  4  0  0
   -1.8731    0.4585    0.0534 C   0  0  0  0  0  0  0  0  0  5  0  0
   -3.1588   -0.0462    0.2104 C   0  0  0  0  0  0  0  0  0  6  0  0
   -0.8963    0.1143    0.9325 O   0  0  0  0  0  0  0  0  0  7  0  0
    0.3600    0.6071    0.7797 C   0  0  0  0  0  0  0  0  0  8  0  0
    0.6467    1.4641   -0.2769 C   0  0  0  0  0  0  0  0  0  9  0  0
   -0.3296    1.8084   -1.1560 O   0  0  0  0  0  0  0  0  0 10  0  0
    1.9321    1.9684   -0.4335 C   0  0  0  0  0  0  0  0  0 11  0  0
    2.9312    1.6159    0.4664 C   0  0  0  0  0  0  0  0  0 12  0  0
    2.6448    0.7588    1.5231 C   0  0  0  0  0  0  0  0  0 13  0  0
    1.3587    0.2545    1.6795 C   0  0  0  0  0  0  0  0  0 14  0  0
    1.0004   -0.8103    2.9912 Cl  0  0  0  0  0  0  0  0  0 15  0  0
    4.5288    2.2432    0.2712 Cl  0  0  0  0  0  0  0  0  0 16  0  0
    2.2871    3.0329   -1.7462 Cl  0  0  0  0  0  0  0  0  0 17  0  0
 11 17  1  0
 12 16  1  0
 14 15  1  0
 14  8  4  0
 13 14  4  0
 12 13  4  0
 11 12  4  0
  9 11  4  0
 10  4  1  0
  9 10  1  0
  8  9  4  0
  7  8  1  0
  5  7  1  0
  6  1  4  0
  5  6  4  0
  4  5  4  0
  3  4  4  0
  2  3  4  0
  1  2  4  0
M  END