metolachlor
  SciTegic01221516373D

 20 20  0  0  0  0            999 V2000
    1.4375    3.3137    1.5258 C   0  0  0  0  0  0  0  0  0  1  0  0
    1.3623    3.1909    2.9055 C   0  0  0  0  0  0  0  0  0  2  0  0
    0.4599    2.2981    3.4650 C   0  0  0  0  0  0  0  0  0  3  0  0
   -0.3660    1.5259    2.6545 C   0  0  0  0  0  0  0  0  0  4  0  0
   -0.2948    1.6441    1.2616 C   0  0  0  0  0  0  0  0  0  5  0  0
    0.6181    2.5488    0.7045 C   0  0  0  0  0  0  0  0  0  6  0  0
    0.7455    2.7340   -0.7870 C   0  0  0  0  0  0  0  0  0  7  0  0
   -1.1517    0.8381    0.4130 N   0  0  0  0  0  0  0  0  0  8  0  0
   -0.6679   -0.5179   -0.0051 C   0  0  1  0  0  0  0  0  0  9  0  0
    0.2761   -0.7240    0.5194 H   0  0  0  0  0  0  0  0  0 10  0  0
   -1.7008   -1.6161    0.3461 C   0  0  0  0  0  0  0  0  0 11  0  0
   -0.4037   -0.5988   -1.5376 C   0  0  0  0  0  0  0  0  0 12  0  0
   -1.5980   -0.3742   -2.2861 O   0  0  0  0  0  0  0  0  0 13  0  0
   -1.3063   -0.4415   -3.6833 C   0  0  0  0  0  0  0  0  0 14  0  0
   -2.4588    1.3422    0.0169 C   0  0  0  0  0  0  0  0  0 15  0  0
   -3.2136    0.6697   -0.6942 O   0  0  0  0  0  0  0  0  0 16  0  0
   -2.9329    2.7020    0.4679 C   0  0  0  0  0  0  0  0  0 17  0  0
   -4.5500    2.9991   -0.1749 Cl  0  0  0  0  0  0  0  0  0 18  0  0
   -1.3398    0.5690    3.3181 C   0  0  0  0  0  0  0  0  0 19  0  0
   -1.2265    0.6545    4.8532 C   0  0  0  0  0  0  0  0  0 20  0  0
 19 20  1  0
  4 19  1  0
 17 18  1  0
 15 17  1  0
 15 16  2  0
  8 15  1  0
 13 14  1  0
 12 13  1  0
  9 12  1  0
  9 11  1  0
  9 10  1  0
  8  9  1  0
  5  8  1  0
  6  7  1  0
  6  1  4  0
  5  6  4  0
  4  5  4  0
  3  4  4  0
  2  3  4  0
  1  2  4  0
M  END