Unnamed
  -MTS-   06200417493D 0   0.00000     0.00000     0

  3  2  0  0  0  0  0  0  0  0  1 V2000
    0.1080    0.0460    0.0000 S   0  0  0  0  0  0  0  0  0  0  0  0
    1.7850   -0.0540    0.0000 C   0  0  0  0  0  0  0  0  0  0  0  0
    2.9820   -0.1250    0.0000 C   0  0  0  0  0  0  0  0  0  0  0  0
  1  2  1  0  0  0  0
  2  3  3  0  0  0  0
M  END
>  <BIO>
57.80

$$$$
Unnamed
  -MTS-   06200417493D 0   0.00000     0.00000     0

  9  9  0  0  0  0  0  0  0  0  1 V2000
    0.0530   -0.0090    0.0000 S   0  0  0  0  0  0  0  0  0  0  0  0
    1.7330    0.0210    0.0000 C   0  0  0  0  0  0  0  0  0  0  0  0
    2.9330    0.0420    0.0000 C   0  0  0  0  0  0  0  0  0  0  0  0
    4.3830    0.0680    0.0000 C   0  0  0  0  0  0  0  0  0  0  0  0
    5.0830    0.0800   -1.2120 C   0  0  0  0  0  0  0  0  0  0  0  0
    6.4820    0.1050   -1.2130 C   0  0  0  0  0  0  0  0  0  0  0  0
    7.1820    0.1170    0.0000 C   0  0  0  0  0  0  0  0  0  0  0  0
    6.4820    0.1050    1.2120 C   0  0  0  0  0  0  0  0  0  0  0  0
    5.0830    0.0800    1.2120 C   0  0  0  0  0  0  0  0  0  0  0  0
  1  2  1  0  0  0  0
  2  3  3  0  0  0  0
  3  4  1  0  0  0  0
  4  5  2  0  0  0  0
  5  6  1  0  0  0  0
  6  7  2  0  0  0  0
  7  8  1  0  0  0  0
  8  9  2  0  0  0  0
  9  4  1  0  0  0  0
M  END
>  <BIO>
120.00

$$$$
Unnamed
  -MTS-   06200417493D 0   0.00000     0.00000     0

 10 10  0  0  0  0  0  0  0  0  1 V2000
    0.0530   -0.0090    0.0000 S   0  0  0  0  0  0  0  0  0  0  0  0
    1.7330    0.0210    0.0000 C   0  0  0  0  0  0  0  0  0  0  0  0
    2.9330    0.0420    0.0000 C   0  0  0  0  0  0  0  0  0  0  0  0
    4.3830    0.0680    0.0000 C   0  0  0  0  0  0  0  0  0  0  0  0
    5.0830    0.0800   -1.2120 C   0  0  0  0  0  0  0  0  0  0  0  0
    6.4820    0.1050   -1.2120 C   0  0  0  0  0  0  0  0  0  0  0  0
    7.1820    0.1170    0.0000 C   0  0  0  0  0  0  0  0  0  0  0  0
    8.6920    0.1440    0.0000 C   0  0  0  0  0  0  0  0  0  0  0  0
    6.4820    0.1050    1.2130 C   0  0  0  0  0  0  0  0  0  0  0  0
    5.0830    0.0800    1.2130 C   0  0  0  0  0  0  0  0  0  0  0  0
  1  2  1  0  0  0  0
  2  3  3  0  0  0  0
  3  4  1  0  0  0  0
  4  5  2  0  0  0  0
  5  6  1  0  0  0  0
  6  7  2  0  0  0  0
  7  8  1  0  0  0  0
  7  9  1  0  0  0  0
  9 10  2  0  0  0  0
 10  4  1  0  0  0  0
M  END
>  <BIO>
36.30

$$$$
Unnamed
  -MTS-   06200417493D 0   0.00000     0.00000     0

 12 12  0  0  0  0  0  0  0  0  1 V2000
    0.0530   -0.0090    0.0000 S   0  0  0  0  0  0  0  0  0  0  0  0
    1.7330    0.0210    0.0000 C   0  0  0  0  0  0  0  0  0  0  0  0
    2.9330    0.0420    0.0000 C   0  0  0  0  0  0  0  0  0  0  0  0
    4.3830    0.0680    0.0000 C   0  0  0  0  0  0  0  0  0  0  0  0
    5.0830    0.0800   -1.2120 C   0  0  0  0  0  0  0  0  0  0  0  0
    6.4820    0.1050   -1.2120 C   0  0  0  0  0  0  0  0  0  0  0  0
    7.1820    0.1170    0.0000 C   0  0  0  0  0  0  0  0  0  0  0  0
    8.6920    0.1440    0.0000 C   0  0  0  0  0  0  0  0  0  0  0  0
    9.1540    1.5290    0.0000 C   0  0  0  0  0  0  0  0  0  0  0  0
    9.5210    2.6290    0.0000 N   0  0  0  0  0  0  0  0  0  0  0  0
    6.4820    0.1050    1.2130 C   0  0  0  0  0  0  0  0  0  0  0  0
    5.0830    0.0800    1.2130 C   0  0  0  0  0  0  0  0  0  0  0  0
  1  2  1  0  0  0  0
  2  3  3  0  0  0  0
  3  4  1  0  0  0  0
  4  5  2  0  0  0  0
  5  6  1  0  0  0  0
  6  7  2  0  0  0  0
  7  8  1  0  0  0  0
  8  9  1  0  0  0  0
  9 10  3  0  0  0  0
  7 11  1  0  0  0  0
 11 12  2  0  0  0  0
 12  4  1  0  0  0  0
M  END
>  <BIO>
54.80

$$$$
Unnamed
  -MTS-   06200417493D 0   0.00000     0.00000     0

 11 11  0  0  0  0  0  0  0  0  1 V2000
    0.0530   -0.0090    0.0000 S   0  0  0  0  0  0  0  0  0  0  0  0
    1.7330    0.0210    0.0000 C   0  0  0  0  0  0  0  0  0  0  0  0
    2.9330    0.0420    0.0000 C   0  0  0  0  0  0  0  0  0  0  0  0
    4.3830    0.0680    0.0000 C   0  0  0  0  0  0  0  0  0  0  0  0
    5.0830    0.0800   -1.2130 C   0  0  0  0  0  0  0  0  0  0  0  0
    6.4820    0.1050   -1.2130 C   0  0  0  0  0  0  0  0  0  0  0  0
    7.1820    0.1170    0.0000 C   0  0  0  0  0  0  0  0  0  0  0  0
    8.5520    0.1410    0.0000 O   0  0  0  0  0  0  0  0  0  0  0  0
    9.2010    1.4160    0.0000 C   0  0  0  0  0  0  0  0  0  0  0  0
    6.4820    0.1050    1.2120 C   0  0  0  0  0  0  0  0  0  0  0  0
    5.0830    0.0800    1.2120 C   0  0  0  0  0  0  0  0  0  0  0  0
  1  2  1  0  0  0  0
  2  3  3  0  0  0  0
  3  4  1  0  0  0  0
  4  5  2  0  0  0  0
  5  6  1  0  0  0  0
  6  7  2  0  0  0  0
  7  8  1  0  0  0  0
  8  9  1  0  0  0  0
  7 10  1  0  0  0  0
 10 11  2  0  0  0  0
 11  4  1  0  0  0  0
M  END
>  <BIO>
52.40

$$$$
Unnamed
  -MTS-   06200417493D 0   0.00000     0.00000     0

 10 10  0  0  0  0  0  0  0  0  1 V2000
    0.0530   -0.0090    0.0000 S   0  0  0  0  0  0  0  0  0  0  0  0
    1.7330    0.0210    0.0000 C   0  0  0  0  0  0  0  0  0  0  0  0
    2.9330    0.0420    0.0000 C   0  0  0  0  0  0  0  0  0  0  0  0
    4.3830    0.0680    0.0000 C   0  0  0  0  0  0  0  0  0  0  0  0
    5.0830    0.0800   -1.2120 C   0  0  0  0  0  0  0  0  0  0  0  0
    6.4820    0.1050   -1.2120 C   0  0  0  0  0  0  0  0  0  0  0  0
    7.1820    0.1170    0.0000 C   0  0  0  0  0  0  0  0  0  0  0  0
    8.5520    0.1420    0.0000 O   0  0  0  0  0  0  0  0  0  0  0  0
    6.4820    0.1050    1.2130 C   0  0  0  0  0  0  0  0  0  0  0  0
    5.0830    0.0800    1.2130 C   0  0  0  0  0  0  0  0  0  0  0  0
  1  2  1  0  0  0  0
  2  3  3  0  0  0  0
  3  4  1  0  0  0  0
  4  5  2  0  0  0  0
  5  6  1  0  0  0  0
  6  7  2  0  0  0  0
  7  8  1  0  0  0  0
  7  9  1  0  0  0  0
  9 10  2  0  0  0  0
 10  4  1  0  0  0  0
M  END
>  <BIO>
20.60

$$$$
Unnamed
  -MTS-   06200417493D 0   0.00000     0.00000     0

 10 10  0  0  0  0  0  0  0  0  1 V2000
    0.0530   -0.0090    0.0000 S   0  0  0  0  0  0  0  0  0  0  0  0
    1.7330    0.0210    0.0000 C   0  0  0  0  0  0  0  0  0  0  0  0
    2.9330    0.0420    0.0000 C   0  0  0  0  0  0  0  0  0  0  0  0
    4.3830    0.0680    0.0000 C   0  0  0  0  0  0  0  0  0  0  0  0
    5.0830    0.0800   -1.2120 C   0  0  0  0  0  0  0  0  0  0  0  0
    6.4820    0.1050   -1.2120 C   0  0  0  0  0  0  0  0  0  0  0  0
    7.1820    0.1170    0.0000 C   0  0  0  0  0  0  0  0  0  0  0  0
    8.5840    0.1420    0.0000 N   0  0  0  0  0  0  0  0  0  0  0  0
    6.4820    0.1050    1.2130 C   0  0  0  0  0  0  0  0  0  0  0  0
    5.0830    0.0800    1.2130 C   0  0  0  0  0  0  0  0  0  0  0  0
  1  2  1  0  0  0  0
  2  3  3  0  0  0  0
  3  4  1  0  0  0  0
  4  5  2  0  0  0  0
  5  6  1  0  0  0  0
  6  7  2  0  0  0  0
  7  8  1  0  0  0  0
  7  9  1  0  0  0  0
  9 10  2  0  0  0  0
 10  4  1  0  0  0  0
M  END
>  <BIO>
113.00

$$$$
Unnamed
  -MTS-   06200417493D 0   0.00000     0.00000     0

 13 13  0  0  0  0  0  0  0  0  1 V2000
    0.0530   -0.0090    0.0000 S   0  0  0  0  0  0  0  0  0  0  0  0
    1.7330    0.0210    0.0000 C   0  0  0  0  0  0  0  0  0  0  0  0
    2.9330    0.0420    0.0000 C   0  0  0  0  0  0  0  0  0  0  0  0
    4.3830    0.0680    0.0000 C   0  0  0  0  0  0  0  0  0  0  0  0
    5.0830    0.0800   -1.2130 C   0  0  0  0  0  0  0  0  0  0  0  0
    6.4820    0.1050   -1.2130 C   0  0  0  0  0  0  0  0  0  0  0  0
    7.1820    0.1170    0.0000 C   0  0  0  0  0  0  0  0  0  0  0  0
    8.6920    0.1440    0.0000 C   0  0  0  0  0  0  0  0  0  0  0  0
    9.1130    1.4060    0.0000 F   0  0  0  0  0  0  0  0  0  0  0  0
    9.1460   -0.4750   -1.0860 F   0  0  0  0  0  0  0  0  0  0  0  0
    9.1460   -0.4750    1.0860 F   0  0  0  0  0  0  0  0  0  0  0  0
    6.4820    0.1050    1.2120 C   0  0  0  0  0  0  0  0  0  0  0  0
    5.0830    0.0800    1.2120 C   0  0  0  0  0  0  0  0  0  0  0  0
  1  2  1  0  0  0  0
  2  3  3  0  0  0  0
  3  4  1  0  0  0  0
  4  5  2  0  0  0  0
  5  6  1  0  0  0  0
  6  7  2  0  0  0  0
  7  8  1  0  0  0  0
  8  9  1  0  0  0  0
  8 10  1  0  0  0  0
  8 11  1  0  0  0  0
  7 12  1  0  0  0  0
 12 13  2  0  0  0  0
 13  4  1  0  0  0  0
M  END
>  <BIO>
315.00

$$$$
Unnamed
  -MTS-   06200417493D 0   0.00000     0.00000     0

 10 10  0  0  0  0  0  0  0  0  1 V2000
    0.0530   -0.0090    0.0000 S   0  0  0  0  0  0  0  0  0  0  0  0
    1.7330    0.0210    0.0000 C   0  0  0  0  0  0  0  0  0  0  0  0
    2.9330    0.0420    0.0000 C   0  0  0  0  0  0  0  0  0  0  0  0
    4.3830    0.0680    0.0000 C   0  0  0  0  0  0  0  0  0  0  0  0
    5.0830    0.0800   -1.2120 C   0  0  0  0  0  0  0  0  0  0  0  0
    6.4820    0.1050   -1.2130 C   0  0  0  0  0  0  0  0  0  0  0  0
    7.1820    0.1170    0.0000 C   0  0  0  0  0  0  0  0  0  0  0  0
    8.5120    0.1410    0.0000 F   0  0  0  0  0  0  0  0  0  0  0  0
    6.4820    0.1050    1.2120 C   0  0  0  0  0  0  0  0  0  0  0  0
    5.0830    0.0800    1.2120 C   0  0  0  0  0  0  0  0  0  0  0  0
  1  2  1  0  0  0  0
  2  3  3  0  0  0  0
  3  4  1  0  0  0  0
  4  5  2  0  0  0  0
  5  6  1  0  0  0  0
  6  7  2  0  0  0  0
  7  8  1  0  0  0  0
  7  9  1  0  0  0  0
  9 10  2  0  0  0  0
 10  4  1  0  0  0  0
M  END
>  <BIO>
81.40

$$$$
Unnamed
  -MTS-   06200417493D 0   0.00000     0.00000     0

 12 12  0  0  0  0  0  0  0  0  1 V2000
    0.0530   -0.0090    0.0000 S   0  0  0  0  0  0  0  0  0  0  0  0
    1.7330    0.0210    0.0000 C   0  0  0  0  0  0  0  0  0  0  0  0
    2.9330    0.0420    0.0000 C   0  0  0  0  0  0  0  0  0  0  0  0
    4.3830    0.0680    0.0000 C   0  0  0  0  0  0  0  0  0  0  0  0
    5.0830    0.0800   -1.2120 C   0  0  0  0  0  0  0  0  0  0  0  0
    6.4820    0.1050   -1.2120 C   0  0  0  0  0  0  0  0  0  0  0  0
    7.1820    0.1170    0.0000 C   0  0  0  0  0  0  0  0  0  0  0  0
    8.6620    0.1440    0.0000 C   0  0  0  0  0  0  0  0  0  0  0  0
    9.2960   -0.9110    0.0000 O   0  0  0  0  0  0  0  0  0  0  0  0
    9.3070    1.3070    0.0000 N   0  0  0  0  0  0  0  0  0  0  0  0
    6.4820    0.1050    1.2130 C   0  0  0  0  0  0  0  0  0  0  0  0
    5.0830    0.0800    1.2130 C   0  0  0  0  0  0  0  0  0  0  0  0
  1  2  1  0  0  0  0
  2  3  3  0  0  0  0
  3  4  1  0  0  0  0
  4  5  2  0  0  0  0
  5  6  1  0  0  0  0
  6  7  2  0  0  0  0
  7  8  1  0  0  0  0
  8  9  2  0  0  0  0
  8 10  1  0  0  0  0
  7 11  1  0  0  0  0
 11 12  2  0  0  0  0
 12  4  1  0  0  0  0
M  END
>  <BIO>
1500.00

$$$$
Unnamed
  -MTS-   06200417493D 0   0.00000     0.00000     0

 12 12  0  0  0  0  0  0  0  0  1 V2000
    0.0530   -0.0090    0.0000 S   0  0  0  0  0  0  0  0  0  0  0  0
    1.7330    0.0210    0.0000 C   0  0  0  0  0  0  0  0  0  0  0  0
    2.9330    0.0420    0.0000 C   0  0  0  0  0  0  0  0  0  0  0  0
    4.3830    0.0680    0.0000 C   0  0  0  0  0  0  0  0  0  0  0  0
    5.0830    0.0800   -1.2120 C   0  0  0  0  0  0  0  0  0  0  0  0
    6.4820    0.1050   -1.2120 C   0  0  0  0  0  0  0  0  0  0  0  0
    7.1820    0.1170    0.0000 C   0  0  0  0  0  0  0  0  0  0  0  0
    8.6620    0.1430    0.0000 C   0  0  0  0  0  0  0  0  0  0  0  0
    9.2960   -0.9110    0.0000 O   0  0  0  0  0  0  0  0  0  0  0  0
    9.3940    1.4640    0.0000 C   0  0  0  0  0  0  0  0  0  0  0  0
    6.4820    0.1050    1.2120 C   0  0  0  0  0  0  0  0  0  0  0  0
    5.0830    0.0800    1.2120 C   0  0  0  0  0  0  0  0  0  0  0  0
  1  2  1  0  0  0  0
  2  3  3  0  0  0  0
  3  4  1  0  0  0  0
  4  5  2  0  0  0  0
  5  6  1  0  0  0  0
  6  7  2  0  0  0  0
  7  8  1  0  0  0  0
  8  9  2  0  0  0  0
  8 10  1  0  0  0  0
  7 11  1  0  0  0  0
 11 12  2  0  0  0  0
 12  4  1  0  0  0  0
M  END
>  <BIO>
187.00

$$$$
Unnamed
  -MTS-   06200417493D 0   0.00000     0.00000     0

 11 11  0  0  0  0  0  0  0  0  1 V2000
    0.0530   -0.0090    0.0000 S   0  0  0  0  0  0  0  0  0  0  0  0
    1.7330    0.0210    0.0000 C   0  0  0  0  0  0  0  0  0  0  0  0
    2.9330    0.0420    0.0000 C   0  0  0  0  0  0  0  0  0  0  0  0
    4.3830    0.0680    0.0000 C   0  0  0  0  0  0  0  0  0  0  0  0
    5.0830    0.0800   -1.2120 C   0  0  0  0  0  0  0  0  0  0  0  0
    4.3430    0.0670   -2.4940 C   0  0  0  0  0  0  0  0  0  0  0  0
    4.0170    1.1270   -3.0270 O   0  0  0  0  0  0  0  0  0  0  0  0
    6.4820    0.1050   -1.2120 C   0  0  0  0  0  0  0  0  0  0  0  0
    7.1820    0.1170    0.0000 C   0  0  0  0  0  0  0  0  0  0  0  0
    6.4820    0.1050    1.2130 C   0  0  0  0  0  0  0  0  0  0  0  0
    5.0830    0.0800    1.2130 C   0  0  0  0  0  0  0  0  0  0  0  0
  1  2  1  0  0  0  0
  2  3  3  0  0  0  0
  3  4  1  0  0  0  0
  4  5  2  0  0  0  0
  5  6  1  0  0  0  0
  6  7  2  0  0  0  0
  5  8  1  0  0  0  0
  8  9  2  0  0  0  0
  9 10  1  0  0  0  0
 10 11  2  0  0  0  0
 11  4  1  0  0  0  0
M  END
>  <BIO>
1158.00

$$$$
Unnamed
  -MTS-   06200417493D 0   0.00000     0.00000     0

 11 11  0  0  0  0  0  0  0  0  1 V2000
    0.0530   -0.0090    0.0000 S   0  0  0  0  0  0  0  0  0  0  0  0
    1.7330    0.0210    0.0000 C   0  0  0  0  0  0  0  0  0  0  0  0
    2.9330    0.0420    0.0000 C   0  0  0  0  0  0  0  0  0  0  0  0
    4.3830    0.0680    0.0000 C   0  0  0  0  0  0  0  0  0  0  0  0
    5.0830    0.0800   -1.2120 C   0  0  0  0  0  0  0  0  0  0  0  0
    6.4820    0.1050   -1.2120 C   0  0  0  0  0  0  0  0  0  0  0  0
    7.2220    0.1180   -2.4940 C   0  0  0  0  0  0  0  0  0  0  0  0
    7.5110    1.1890   -3.0270 O   0  0  0  0  0  0  0  0  0  0  0  0
    7.1820    0.1170    0.0000 C   0  0  0  0  0  0  0  0  0  0  0  0
    6.4820    0.1050    1.2130 C   0  0  0  0  0  0  0  0  0  0  0  0
    5.0830    0.0800    1.2120 C   0  0  0  0  0  0  0  0  0  0  0  0
  1  2  1  0  0  0  0
  2  3  3  0  0  0  0
  3  4  1  0  0  0  0
  4  5  2  0  0  0  0
  5  6  1  0  0  0  0
  6  7  1  0  0  0  0
  7  8  2  0  0  0  0
  6  9  2  0  0  0  0
  9 10  1  0  0  0  0
 10 11  2  0  0  0  0
 11  4  1  0  0  0  0
M  END
>  <BIO>
176.00

$$$$
Unnamed
  -MTS-   06200417493D 0   0.00000     0.00000     0

 11 11  0  0  0  0  0  0  0  0  1 V2000
    0.0530   -0.0090    0.0000 S   0  0  0  0  0  0  0  0  0  0  0  0
    1.7330    0.0210    0.0000 C   0  0  0  0  0  0  0  0  0  0  0  0
    2.9330    0.0420    0.0000 C   0  0  0  0  0  0  0  0  0  0  0  0
    4.3830    0.0680    0.0000 C   0  0  0  0  0  0  0  0  0  0  0  0
    5.0830    0.0800   -1.2130 C   0  0  0  0  0  0  0  0  0  0  0  0
    6.4820    0.1050   -1.2130 C   0  0  0  0  0  0  0  0  0  0  0  0
    7.1820    0.1170    0.0000 C   0  0  0  0  0  0  0  0  0  0  0  0
    8.6620    0.1440    0.0000 C   0  0  0  0  0  0  0  0  0  0  0  0
    9.2580    1.2190    0.0000 O   0  0  0  0  0  0  0  0  0  0  0  0
    6.4820    0.1050    1.2120 C   0  0  0  0  0  0  0  0  0  0  0  0
    5.0830    0.0800    1.2120 C   0  0  0  0  0  0  0  0  0  0  0  0
  1  2  1  0  0  0  0
  2  3  3  0  0  0  0
  3  4  1  0  0  0  0
  4  5  2  0  0  0  0
  5  6  1  0  0  0  0
  6  7  2  0  0  0  0
  7  8  1  0  0  0  0
  8  9  2  0  0  0  0
  7 10  1  0  0  0  0
 10 11  2  0  0  0  0
 11  4  1  0  0  0  0
M  END
>  <BIO>
6.30

$$$$
Unnamed
  -MTS-   06200417493D 0   0.00000     0.00000     0

 12 12  0  0  0  0  0  0  0  0  2 V2000
    0.0530   -0.0090    0.0000 S   0  0  0  0  0  0  0  0  0  0  0  0
    1.7330    0.0210    0.0000 C   0  0  0  0  0  0  0  0  0  0  0  0
    2.9330    0.0420    0.0000 C   0  0  0  0  0  0  0  0  0  0  0  0
    4.3830    0.0680    0.0000 C   0  0  0  0  0  0  0  0  0  0  0  0
    5.0830    0.0800   -1.2120 C   0  0  0  0  0  0  0  0  0  0  0  0
    6.4820    0.1050   -1.2120 C   0  0  0  0  0  0  0  0  0  0  0  0
    7.1820    0.1170    0.0000 C   0  0  0  0  0  0  0  0  0  0  0  0
    8.6520    0.1430    0.0000 N   0  3  0  0  0  0  0  0  0  0  0  0
    9.2420    1.2080    0.0000 O   0  5  0  0  0  0  0  0  0  0  0  0
    9.2790   -0.9000    0.0000 O   0  0  0  0  0  0  0  0  0  0  0  0
    6.4820    0.1050    1.2130 C   0  0  0  0  0  0  0  0  0  0  0  0
    5.0830    0.0800    1.2130 C   0  0  0  0  0  0  0  0  0  0  0  0
  1  2  1  0  0  0  0
  2  3  3  0  0  0  0
  3  4  1  0  0  0  0
  4  5  2  0  0  0  0
  5  6  1  0  0  0  0
  6  7  2  0  0  0  0
  7  8  1  0  0  0  0
  8  9  1  0  0  0  0
  8 10  2  0  0  0  0
  7 11  1  0  0  0  0
 11 12  2  0  0  0  0
 12  4  1  0  0  0  0
M  CHG  2   8   1   9  -1
M  END
>  <BIO>
21.50

$$$$
Unnamed
  -MTS-   06200417493D 0   0.00000     0.00000     0

 18 18  0  0  0  0  0  0  0  0  1 V2000
    0.0530   -0.0090    0.0000 S   0  0  0  0  0  0  0  0  0  0  0  0
    1.7330    0.0210    0.0000 C   0  0  0  0  0  0  0  0  0  0  0  0
    2.9330    0.0420    0.0000 C   0  0  0  0  0  0  0  0  0  0  0  0
    4.3830    0.0680    0.0000 C   0  0  0  0  0  0  0  0  0  0  0  0
    5.0830    0.0800   -1.2120 C   0  0  0  0  0  0  0  0  0  0  0  0
    6.4820    0.1050   -1.2120 C   0  0  0  0  0  0  0  0  0  0  0  0
    7.1820    0.1170    0.0000 C   0  0  0  0  0  0  0  0  0  0  0  0
    8.6920    0.1440    0.0000 C   0  0  0  0  0  0  0  0  0  0  0  0
    9.1760    1.5940    0.0010 C   0  0  0  0  0  0  0  0  0  0  0  0
   10.6850    1.6210    0.0010 C   0  0  0  0  0  0  0  0  0  0  0  0
   11.3010    0.5960    0.0000 O   0  0  0  0  0  0  0  0  0  0  0  0
   11.3200    2.7660    0.0010 O   0  0  0  0  0  0  0  0  0  0  0  0
   12.7500    2.7420    0.0010 C   0  0  0  0  0  0  0  0  0  0  0  0
   13.2830    4.1720    0.0010 C   0  0  0  0  0  0  0  0  0  0  0  0
   13.2460    2.0140    1.2470 C   0  0  0  0  0  0  0  0  0  0  0  0
   13.2460    2.0140   -1.2450 C   0  0  0  0  0  0  0  0  0  0  0  0
    6.4820    0.1050    1.2130 C   0  0  0  0  0  0  0  0  0  0  0  0
    5.0830    0.0800    1.2130 C   0  0  0  0  0  0  0  0  0  0  0  0
  1  2  1  0  0  0  0
  2  3  3  0  0  0  0
  3  4  1  0  0  0  0
  4  5  2  0  0  0  0
  5  6  1  0  0  0  0
  6  7  2  0  0  0  0
  7  8  1  0  0  0  0
  8  9  1  0  0  0  0
  9 10  1  0  0  0  0
 10 11  2  0  0  0  0
 10 12  1  0  0  0  0
 12 13  1  0  0  0  0
 13 14  1  0  0  0  0
 13 15  1  0  0  0  0
 13 16  1  0  0  0  0
  7 17  1  0  0  0  0
 17 18  2  0  0  0  0
 18  4  1  0  0  0  0
M  END
>  <BIO>
743.00

$$$$
Unnamed
  -MTS-   06200417493D 0   0.00000     0.00000     0

 14 14  0  0  0  0  0  0  0  0  1 V2000
    0.0530   -0.0090    0.0000 S   0  0  0  0  0  0  0  0  0  0  0  0
    1.7330    0.0210    0.0000 C   0  0  0  0  0  0  0  0  0  0  0  0
    2.9330    0.0420    0.0000 C   0  0  0  0  0  0  0  0  0  0  0  0
    4.3830    0.0680    0.0000 C   0  0  0  0  0  0  0  0  0  0  0  0
    5.0830    0.0800   -1.2120 C   0  0  0  0  0  0  0  0  0  0  0  0
    6.4820    0.1050   -1.2120 C   0  0  0  0  0  0  0  0  0  0  0  0
    7.1820    0.1170    0.0000 C   0  0  0  0  0  0  0  0  0  0  0  0
    8.6920    0.1440    0.0000 C   0  0  0  0  0  0  0  0  0  0  0  0
    9.1760    1.5940    0.0000 C   0  0  0  0  0  0  0  0  0  0  0  0
   10.6860    1.6200    0.0000 C   0  0  0  0  0  0  0  0  0  0  0  0
   11.3140    0.5750    0.0000 O   0  0  0  0  0  0  0  0  0  0  0  0
   11.3200    2.7660    0.0000 O   0  0  0  0  0  0  0  0  0  0  0  0
    6.4820    0.1050    1.2130 C   0  0  0  0  0  0  0  0  0  0  0  0
    5.0830    0.0800    1.2130 C   0  0  0  0  0  0  0  0  0  0  0  0
  1  2  1  0  0  0  0
  2  3  3  0  0  0  0
  3  4  1  0  0  0  0
  4  5  2  0  0  0  0
  5  6  1  0  0  0  0
  6  7  2  0  0  0  0
  7  8  1  0  0  0  0
  8  9  1  0  0  0  0
  9 10  1  0  0  0  0
 10 11  2  0  0  0  0
 10 12  1  0  0  0  0
  7 13  1  0  0  0  0
 13 14  2  0  0  0  0
 14  4  1  0  0  0  0
M  END
>  <BIO>
1500.00

$$$$
Unnamed
  -MTS-   06200417493D 0   0.00000     0.00000     0

 13 14  0  0  0  0  0  0  0  0  1 V2000
    0.0530   -0.0090    0.0000 S   0  0  0  0  0  0  0  0  0  0  0  0
    1.7330    0.0210    0.0000 C   0  0  0  0  0  0  0  0  0  0  0  0
    2.9330    0.0420    0.0000 C   0  0  0  0  0  0  0  0  0  0  0  0
    4.3830    0.0680    0.0000 C   0  0  0  0  0  0  0  0  0  0  0  0
    5.0830    0.0800   -1.2120 C   0  0  0  0  0  0  0  0  0  0  0  0
    6.4820    0.1050   -1.2120 C   0  0  0  0  0  0  0  0  0  0  0  0
    7.1820    0.1170   -2.4250 C   0  0  0  0  0  0  0  0  0  0  0  0
    6.4820    0.1050   -3.6370 C   0  0  0  0  0  0  0  0  0  0  0  0
    5.0830    0.0800   -3.6370 C   0  0  0  0  0  0  0  0  0  0  0  0
    4.3830    0.0680   -2.4250 C   0  0  0  0  0  0  0  0  0  0  0  0
    7.1820    0.1170    0.0000 C   0  0  0  0  0  0  0  0  0  0  0  0
    6.4820    0.1050    1.2120 C   0  0  0  0  0  0  0  0  0  0  0  0
    5.0830    0.0800    1.2120 C   0  0  0  0  0  0  0  0  0  0  0  0
  1  2  1  0  0  0  0
  2  3  3  0  0  0  0
  3  4  1  0  0  0  0
  4  5  1  0  0  0  0
  5  6  2  0  0  0  0
  6  7  1  0  0  0  0
  7  8  2  0  0  0  0
  8  9  1  0  0  0  0
  9 10  2  0  0  0  0
 10  5  1  0  0  0  0
  6 11  1  0  0  0  0
 11 12  2  0  0  0  0
 12 13  1  0  0  0  0
 13  4  2  0  0  0  0
M  END
>  <BIO>
488.00

$$$$
Unnamed
  -MTS-   06200417493D 0   0.00000     0.00000     0

 10 10  0  0  0  0  0  0  0  0  1 V2000
    0.0530   -0.0090    0.0000 S   0  0  0  0  0  0  0  0  0  0  0  0
    1.7330    0.0210    0.0000 C   0  0  0  0  0  0  0  0  0  0  0  0
    2.9330    0.0420    0.0000 C   0  0  0  0  0  0  0  0  0  0  0  0
    4.3930    0.0680    0.0000 C   0  0  0  0  0  0  0  0  0  0  0  0
    4.9210   -1.3470    0.0000 C   0  0  0  0  0  0  0  0  0  0  0  0
    5.1660   -2.0020   -1.2120 C   0  0  0  0  0  0  0  0  0  0  0  0
    5.6560   -3.3140   -1.2130 C   0  0  0  0  0  0  0  0  0  0  0  0
    5.9010   -3.9700    0.0000 C   0  0  0  0  0  0  0  0  0  0  0  0
    5.6560   -3.3140    1.2120 C   0  0  0  0  0  0  0  0  0  0  0  0
    5.1660   -2.0020    1.2120 C   0  0  0  0  0  0  0  0  0  0  0  0
  1  2  1  0  0  0  0
  2  3  3  0  0  0  0
  3  4  1  0  0  0  0
  4  5  1  0  0  0  0
  5  6  2  0  0  0  0
  6  7  1  0  0  0  0
  7  8  2  0  0  0  0
  8  9  1  0  0  0  0
  9 10  2  0  0  0  0
 10  5  1  0  0  0  0
M  END
>  <BIO>
1.60

$$$$
Unnamed
  -MTS-   06200417493D 0   0.00000     0.00000     0

 11 11  0  0  0  0  0  0  0  0  1 V2000
    0.0530   -0.0090    0.0000 S   0  0  0  0  0  0  0  0  0  0  0  0
    1.7330    0.0210    0.0000 C   0  0  0  0  0  0  0  0  0  0  0  0
    2.9330    0.0420    0.0000 C   0  0  0  0  0  0  0  0  0  0  0  0
    4.3930    0.0680    0.0000 C   0  0  0  0  0  0  0  0  0  0  0  0
    4.9280   -1.3630    0.0000 C   0  0  0  0  0  0  0  0  0  0  0  0
    6.4370   -1.3370    0.0000 C   0  0  0  0  0  0  0  0  0  0  0  0
    7.1370   -1.3240    1.2120 C   0  0  0  0  0  0  0  0  0  0  0  0
    8.5370   -1.3000    1.2120 C   0  0  0  0  0  0  0  0  0  0  0  0
    9.2370   -1.2870    0.0000 C   0  0  0  0  0  0  0  0  0  0  0  0
    8.5370   -1.2990   -1.2120 C   0  0  0  0  0  0  0  0  0  0  0  0
    7.1370   -1.3240   -1.2120 C   0  0  0  0  0  0  0  0  0  0  0  0
  1  2  1  0  0  0  0
  2  3  3  0  0  0  0
  3  4  1  0  0  0  0
  4  5  1  0  0  0  0
  5  6  1  0  0  0  0
  6  7  2  0  0  0  0
  7  8  1  0  0  0  0
  8  9  2  0  0  0  0
  9 10  1  0  0  0  0
 10 11  2  0  0  0  0
 11  6  1  0  0  0  0
M  END
>  <BIO>
7.00

$$$$
Unnamed
  -MTS-   06200417493D 0   0.00000     0.00000     0

 12 12  0  0  0  0  0  0  0  0  1 V2000
    0.0530   -0.0090    0.0000 S   0  0  0  0  0  0  0  0  0  0  0  0
    1.7330    0.0210    0.0000 C   0  0  0  0  0  0  0  0  0  0  0  0
    2.9330    0.0420    0.0000 C   0  0  0  0  0  0  0  0  0  0  0  0
    4.3930    0.0680    0.0000 C   0  0  0  0  0  0  0  0  0  0  0  0
    4.9270   -1.3630    0.0000 C   0  0  0  0  0  0  0  0  0  0  0  0
    6.4550   -1.3360    0.0000 C   0  0  0  0  0  0  0  0  0  0  0  0
    6.9840   -2.7510    0.0000 C   0  0  0  0  0  0  0  0  0  0  0  0
    7.2290   -3.4070   -1.2120 C   0  0  0  0  0  0  0  0  0  0  0  0
    7.7190   -4.7180   -1.2120 C   0  0  0  0  0  0  0  0  0  0  0  0
    7.9640   -5.3740    0.0000 C   0  0  0  0  0  0  0  0  0  0  0  0
    7.7190   -4.7180    1.2120 C   0  0  0  0  0  0  0  0  0  0  0  0
    7.2290   -3.4070    1.2120 C   0  0  0  0  0  0  0  0  0  0  0  0
  1  2  1  0  0  0  0
  2  3  3  0  0  0  0
  3  4  1  0  0  0  0
  4  5  1  0  0  0  0
  5  6  1  0  0  0  0
  6  7  1  0  0  0  0
  7  8  2  0  0  0  0
  8  9  1  0  0  0  0
  9 10  2  0  0  0  0
 10 11  1  0  0  0  0
 11 12  2  0  0  0  0
 12  7  1  0  0  0  0
M  END
>  <BIO>
1.20

$$$$
Unnamed
  -MTS-   06200417493D 0   0.00000     0.00000     0

  9  9  0  0  0  0  0  0  0  0  1 V2000
    0.0530   -0.0090    0.0000 S   0  0  0  0  0  0  0  0  0  0  0  0
    1.7330    0.0210    0.0000 C   0  0  0  0  0  0  0  0  0  0  0  0
    2.9330    0.0420    0.0000 C   0  0  0  0  0  0  0  0  0  0  0  0
    4.3830    0.0680    0.0000 C   0  0  0  0  0  0  0  0  0  0  0  0
    5.0470    0.0800   -1.1640 N   0  0  0  0  0  0  0  0  0  0  0  0
    6.3860    0.1030   -1.2100 C   0  0  0  0  0  0  0  0  0  0  0  0
    7.1410    0.1170   -0.0310 C   0  0  0  0  0  0  0  0  0  0  0  0
    6.4760    0.1050    1.2010 C   0  0  0  0  0  0  0  0  0  0  0  0
    5.0770    0.0800    1.2160 C   0  0  0  0  0  0  0  0  0  0  0  0
  1  2  1  0  0  0  0
  2  3  3  0  0  0  0
  3  4  1  0  0  0  0
  4  5  1  0  0  0  0
  5  6  2  0  0  0  0
  6  7  1  0  0  0  0
  7  8  2  0  0  0  0
  8  9  1  0  0  0  0
  9  4  2  0  0  0  0
M  END
>  <BIO>
90.00

$$$$
Unnamed
  -MTS-   06200417493D 0   0.00000     0.00000     0

  9  9  0  0  0  0  0  0  0  0  1 V2000
    0.0530   -0.0090    0.0000 S   0  0  0  0  0  0  0  0  0  0  0  0
    1.7330    0.0210    0.0000 C   0  0  0  0  0  0  0  0  0  0  0  0
    2.9330    0.0420    0.0000 C   0  0  0  0  0  0  0  0  0  0  0  0
    4.3830    0.0680    0.0000 C   0  0  0  0  0  0  0  0  0  0  0  0
    5.0930    0.0800   -1.2070 C   0  0  0  0  0  0  0  0  0  0  0  0
    6.4320    0.1040   -1.2080 N   0  0  0  0  0  0  0  0  0  0  0  0
    7.1390    0.1170   -0.0690 C   0  0  0  0  0  0  0  0  0  0  0  0
    6.4920    0.1050    1.1720 C   0  0  0  0  0  0  0  0  0  0  0  0
    5.0920    0.0800    1.2070 C   0  0  0  0  0  0  0  0  0  0  0  0
  1  2  1  0  0  0  0
  2  3  3  0  0  0  0
  3  4  1  0  0  0  0
  4  5  2  0  0  0  0
  5  6  1  0  0  0  0
  6  7  2  0  0  0  0
  7  8  1  0  0  0  0
  8  9  2  0  0  0  0
  9  4  1  0  0  0  0
M  END
>  <BIO>
234.00

$$$$
Unnamed
  -MTS-   06200417493D 0   0.00000     0.00000     0

  9  9  0  0  0  0  0  0  0  0  1 V2000
    0.0530   -0.0090    0.0000 S   0  0  0  0  0  0  0  0  0  0  0  0
    1.7330    0.0210    0.0000 C   0  0  0  0  0  0  0  0  0  0  0  0
    2.9330    0.0420    0.0000 C   0  0  0  0  0  0  0  0  0  0  0  0
    4.3830    0.0680    0.0000 C   0  0  0  0  0  0  0  0  0  0  0  0
    5.0930    0.0800   -1.2060 C   0  0  0  0  0  0  0  0  0  0  0  0
    6.4930    0.1050   -1.1800 C   0  0  0  0  0  0  0  0  0  0  0  0
    7.1400    0.1160   -0.0070 N   0  0  0  0  0  0  0  0  0  0  0  0
    6.4920    0.1050    1.1650 C   0  0  0  0  0  0  0  0  0  0  0  0
    5.0930    0.0800    1.2060 C   0  0  0  0  0  0  0  0  0  0  0  0
  1  2  1  0  0  0  0
  2  3  3  0  0  0  0
  3  4  1  0  0  0  0
  4  5  2  0  0  0  0
  5  6  1  0  0  0  0
  6  7  2  0  0  0  0
  7  8  1  0  0  0  0
  8  9  2  0  0  0  0
  9  4  1  0  0  0  0
M  END
>  <BIO>
87.00

$$$$
Unnamed
  -MTS-   06200417493D 0   0.00000     0.00000     0

  8  8  0  0  0  0  0  0  0  0  1 V2000
    0.0530   -0.0090    0.0000 S   0  0  0  0  0  0  0  0  0  0  0  0
    1.7330    0.0210    0.0000 C   0  0  0  0  0  0  0  0  0  0  0  0
    2.9330    0.0420    0.0000 C   0  0  0  0  0  0  0  0  0  0  0  0
    4.3830    0.0680    0.0000 C   0  0  0  0  0  0  0  0  0  0  0  0
    5.2120    0.0820   -1.1400 O   0  0  0  0  0  0  0  0  0  0  0  0
    6.5500    0.1060   -0.6960 C   0  0  0  0  0  0  0  0  0  0  0  0
    6.5390    0.1060    0.7040 C   0  0  0  0  0  0  0  0  0  0  0  0
    5.2060    0.0820    1.1320 C   0  0  0  0  0  0  0  0  0  0  0  0
  1  2  1  0  0  0  0
  2  3  3  0  0  0  0
  3  4  1  0  0  0  0
  4  5  1  0  0  0  0
  5  6  1  0  0  0  0
  6  7  2  0  0  0  0
  7  8  1  0  0  0  0
  8  4  2  0  0  0  0
M  END
>  <BIO>
130.00

$$$$
Unnamed
  -MTS-   06200417493D 0   0.00000     0.00000     0

  8  8  0  0  0  0  0  0  0  0  1 V2000
    0.0530   -0.0090    0.0000 S   0  0  0  0  0  0  0  0  0  0  0  0
    1.7330    0.0210    0.0000 C   0  0  0  0  0  0  0  0  0  0  0  0
    2.9330    0.0420    0.0000 C   0  0  0  0  0  0  0  0  0  0  0  0
    4.3830    0.0680    0.0000 C   0  0  0  0  0  0  0  0  0  0  0  0
    5.4390    0.0860   -1.3830 S   0  0  0  0  0  0  0  0  0  0  0  0
    6.9520    0.1130   -0.5230 C   0  0  0  0  0  0  0  0  0  0  0  0
    6.6040    0.1070    0.8330 C   0  0  0  0  0  0  0  0  0  0  0  0
    5.2330    0.0830    1.1120 C   0  0  0  0  0  0  0  0  0  0  0  0
  1  2  1  0  0  0  0
  2  3  3  0  0  0  0
  3  4  1  0  0  0  0
  4  5  1  0  0  0  0
  5  6  1  0  0  0  0
  6  7  2  0  0  0  0
  7  8  1  0  0  0  0
  8  4  2  0  0  0  0
M  END
>  <BIO>
19.50

$$$$
Unnamed
  -MTS-   06200417493D 0   0.00000     0.00000     0

  8  8  0  0  0  0  0  0  0  0  1 V2000
    0.0530   -0.0090    0.0000 S   0  0  0  0  0  0  0  0  0  0  0  0
    1.7330    0.0210    0.0000 C   0  0  0  0  0  0  0  0  0  0  0  0
    2.9330    0.0420    0.0000 C   0  0  0  0  0  0  0  0  0  0  0  0
    4.3830    0.0680    0.0000 C   0  0  0  0  0  0  0  0  0  0  0  0
    5.4540    0.0870   -1.3710 S   0  0  0  0  0  0  0  0  0  0  0  0
    6.9390    0.1130   -0.4640 C   0  0  0  0  0  0  0  0  0  0  0  0
    6.5540    0.1060    0.8200 N   0  0  0  0  0  0  0  0  0  0  0  0
    5.2450    0.0830    1.1030 C   0  0  0  0  0  0  0  0  0  0  0  0
  1  2  1  0  0  0  0
  2  3  3  0  0  0  0
  3  4  1  0  0  0  0
  4  5  1  0  0  0  0
  5  6  1  0  0  0  0
  6  7  2  0  0  0  0
  7  8  1  0  0  0  0
  8  4  2  0  0  0  0
M  END
>  <BIO>
41.30

$$$$
Unnamed
  -MTS-   06200417493D 0   0.00000     0.00000     0

  9  9  0  0  0  0  0  0  0  0  1 V2000
    0.0530   -0.0090    0.0000 S   0  0  0  0  0  0  0  0  0  0  0  0
    1.7330    0.0210    0.0000 C   0  0  0  0  0  0  0  0  0  0  0  0
    2.9330    0.0420    0.0000 C   0  0  0  0  0  0  0  0  0  0  0  0
    4.3930    0.0680    0.0000 C   0  0  0  0  0  0  0  0  0  0  0  0
    4.9070   -1.3090    0.0000 N   0  0  0  0  0  0  0  0  0  0  0  0
    5.1950   -2.0790    1.1120 C   0  0  0  0  0  0  0  0  0  0  0  0
    5.6410   -3.2740    0.7010 N   0  0  0  0  0  0  0  0  0  0  0  0
    5.6560   -3.3130   -0.6390 C   0  0  0  0  0  0  0  0  0  0  0  0
    5.1950   -2.0790   -1.1120 C   0  0  0  0  0  0  0  0  0  0  0  0
  1  2  1  0  0  0  0
  2  3  3  0  0  0  0
  3  4  1  0  0  0  0
  4  5  1  0  0  0  0
  5  6  1  0  0  0  0
  6  7  2  0  0  0  0
  7  8  1  0  0  0  0
  8  9  2  0  0  0  0
  9  5  1  0  0  0  0
M  END
>  <BIO>
16.50

$$$$
Unnamed
  -MTS-   06200417493D 0   0.00000     0.00000     0

 10 10  0  0  0  0  0  0  0  0  1 V2000
    0.0530   -0.0090    0.0000 S   0  0  0  0  0  0  0  0  0  0  0  0
    1.7330    0.0210    0.0000 C   0  0  0  0  0  0  0  0  0  0  0  0
    2.9330    0.0420    0.0000 C   0  0  0  0  0  0  0  0  0  0  0  0
    4.3930    0.0680    0.0000 C   0  0  0  0  0  0  0  0  0  0  0  0
    4.9070   -1.3090    0.0000 N   0  0  0  0  0  0  0  0  0  0  0  0
    5.0780   -1.7660   -1.3870 C   0  0  0  0  0  0  0  0  0  0  0  0
    5.5850   -3.2190   -1.4330 C   0  0  0  0  0  0  0  0  0  0  0  0
    6.8770   -3.3880   -0.6110 C   0  0  0  0  0  0  0  0  0  0  0  0
    6.7230   -2.7970    0.8030 C   0  0  0  0  0  0  0  0  0  0  0  0
    6.1670   -1.3610    0.7550 C   0  0  0  0  0  0  0  0  0  0  0  0
  1  2  1  0  0  0  0
  2  3  3  0  0  0  0
  3  4  1  0  0  0  0
  4  5  1  0  0  0  0
  5  6  1  0  0  0  0
  6  7  1  0  0  0  0
  7  8  1  0  0  0  0
  8  9  1  0  0  0  0
  9 10  1  0  0  0  0
 10  5  1  0  0  0  0
M  END
>  <BIO>
4.30

$$$$
Unnamed
  -MTS-   06200417493D 0   0.00000     0.00000     0

 11 11  0  0  0  0  0  0  0  0  1 V2000
    0.0530   -0.0090    0.0000 S   0  0  0  0  0  0  0  0  0  0  0  0
    1.7330    0.0210    0.0000 C   0  0  0  0  0  0  0  0  0  0  0  0
    2.9330    0.0420    0.0000 C   0  0  0  0  0  0  0  0  0  0  0  0
    4.3930    0.0680    0.0000 C   0  0  0  0  0  0  0  0  0  0  0  0
    4.9070   -1.3090    0.0000 N   0  0  0  0  0  0  0  0  0  0  0  0
    5.0790   -1.7680   -1.3860 C   0  0  0  0  0  0  0  0  0  0  0  0
    5.6170   -3.2100   -1.4390 C   0  0  0  0  0  0  0  0  0  0  0  0
    6.9210   -3.3510   -0.6320 C   0  0  0  0  0  0  0  0  0  0  0  0
    7.3250   -4.8210   -0.5480 C   0  0  0  0  0  0  0  0  0  0  0  0
    6.7720   -2.7660    0.7840 C   0  0  0  0  0  0  0  0  0  0  0  0
    6.1810   -1.3450    0.7330 C   0  0  0  0  0  0  0  0  0  0  0  0
  1  2  1  0  0  0  0
  2  3  3  0  0  0  0
  3  4  1  0  0  0  0
  4  5  1  0  0  0  0
  5  6  1  0  0  0  0
  6  7  1  0  0  0  0
  7  8  1  0  0  0  0
  8  9  1  0  0  0  0
  8 10  1  0  0  0  0
 10 11  1  0  0  0  0
 11  5  1  0  0  0  0
M  END
>  <BIO>
19.10

$$$$
Unnamed
  -MTS-   06200417493D 0   0.00000     0.00000     0

 10 10  0  0  0  0  0  0  0  0  1 V2000
    0.0530   -0.0090    0.0000 S   0  0  0  0  0  0  0  0  0  0  0  0
    1.7330    0.0210    0.0000 C   0  0  0  0  0  0  0  0  0  0  0  0
    2.9330    0.0420    0.0000 C   0  0  0  0  0  0  0  0  0  0  0  0
    4.3930    0.0680    0.0000 C   0  0  0  0  0  0  0  0  0  0  0  0
    4.9070   -1.3090    0.0000 N   0  0  0  0  0  0  0  0  0  0  0  0
    5.0790   -1.7680   -1.3860 C   0  0  0  0  0  0  0  0  0  0  0  0
    5.7660   -3.1450   -1.4340 C   0  0  0  0  0  0  0  0  0  0  0  0
    7.0070   -3.1320   -0.7220 O   0  0  0  0  0  0  0  0  0  0  0  0
    6.8330   -2.7450    0.6440 C   0  0  0  0  0  0  0  0  0  0  0  0
    6.1740   -1.3570    0.7450 C   0  0  0  0  0  0  0  0  0  0  0  0
  1  2  1  0  0  0  0
  2  3  3  0  0  0  0
  3  4  1  0  0  0  0
  4  5  1  0  0  0  0
  5  6  1  0  0  0  0
  6  7  1  0  0  0  0
  7  8  1  0  0  0  0
  8  9  1  0  0  0  0
  9 10  1  0  0  0  0
 10  5  1  0  0  0  0
M  END
>  <BIO>
27.40

$$$$
Unnamed
  -MTS-   06200417493D 0   0.00000     0.00000     0

 10 10  0  0  0  0  0  0  0  0  1 V2000
    0.0530   -0.0090    0.0000 S   0  0  0  0  0  0  0  0  0  0  0  0
    1.7330    0.0210    0.0000 C   0  0  0  0  0  0  0  0  0  0  0  0
    2.9330    0.0420    0.0000 C   0  0  0  0  0  0  0  0  0  0  0  0
    4.3930    0.0680    0.0000 C   0  0  0  0  0  0  0  0  0  0  0  0
    4.9070   -1.3090    0.0000 N   0  0  0  0  0  0  0  0  0  0  0  0
    5.0790   -1.7680   -1.3860 C   0  0  0  0  0  0  0  0  0  0  0  0
    5.2150   -3.2990   -1.4840 C   0  0  0  0  0  0  0  0  0  0  0  0
    6.4420   -3.9320   -0.2980 S   0  0  0  0  0  0  0  0  0  0  0  0
    6.5800   -2.7900    1.1120 C   0  0  0  0  0  0  0  0  0  0  0  0
    6.1880   -1.3530    0.7200 C   0  0  0  0  0  0  0  0  0  0  0  0
  1  2  1  0  0  0  0
  2  3  3  0  0  0  0
  3  4  1  0  0  0  0
  4  5  1  0  0  0  0
  5  6  1  0  0  0  0
  6  7  1  0  0  0  0
  7  8  1  0  0  0  0
  8  9  1  0  0  0  0
  9 10  1  0  0  0  0
 10  5  1  0  0  0  0
M  END
>  <BIO>
5.90

$$$$
