Unnamed
  -MTS-   06200417493D 0   0.00000     0.00000     0

  3  2  0  0  0  0  0  0  0  0  1 V2000
    0.0740    0.0520    0.0000 S   0  0  0  0  0  0  0  0  0  0  0  0
    1.8400   -0.0690    0.0000 C   0  0  0  0  0  0  0  0  0  0  0  0
    2.3660   -1.1420    0.0000 O   0  0  0  0  0  0  0  0  0  0  0  0
  1  2  1  0  0  0  0
  2  3  2  0  0  0  0
M  END
>  <BIO>
0.00400

$$$$
Unnamed
  -MTS-   06200417493D 0   0.00000     0.00000     0

  4  3  0  0  0  0  0  0  0  0  1 V2000
    0.0740    0.0520    0.0000 S   0  0  0  0  0  0  0  0  0  0  0  0
    1.8400   -0.0690    0.0000 C   0  0  0  0  0  0  0  0  0  0  0  0
    2.5260    0.9520    0.0000 O   0  0  0  0  0  0  0  0  0  0  0  0
    2.5040   -1.4250    0.0000 C   0  0  0  0  0  0  0  0  0  0  0  0
  1  2  1  0  0  0  0
  2  3  2  0  0  0  0
  2  4  1  0  0  0  0
M  END
>  <BIO>
0.01000

$$$$
Unnamed
  -MTS-   06200417493D 0   0.00000     0.00000     0

  5  4  0  0  0  0  0  0  0  0  1 V2000
    0.0740    0.0520    0.0000 S   0  0  0  0  0  0  0  0  0  0  0  0
    1.8400   -0.0690    0.0000 C   0  0  0  0  0  0  0  0  0  0  0  0
    2.5260    0.9520    0.0000 O   0  0  0  0  0  0  0  0  0  0  0  0
    2.5040   -1.4250    0.0000 C   0  0  0  0  0  0  0  0  0  0  0  0
    4.0200   -1.2490    0.0000 C   0  0  0  0  0  0  0  0  0  0  0  0
  1  2  1  0  0  0  0
  2  3  2  0  0  0  0
  2  4  1  0  0  0  0
  4  5  1  0  0  0  0
M  END
>  <BIO>
0.00220

$$$$
Unnamed
  -MTS-   06200417493D 0   0.00000     0.00000     0

  6  5  0  0  0  0  0  0  0  0  1 V2000
    0.0740    0.0520    0.0000 S   0  0  0  0  0  0  0  0  0  0  0  0
    1.8400   -0.0690    0.0000 C   0  0  0  0  0  0  0  0  0  0  0  0
    2.5260    0.9520    0.0000 O   0  0  0  0  0  0  0  0  0  0  0  0
    2.5040   -1.4250    0.0000 C   0  0  0  0  0  0  0  0  0  0  0  0
    4.0220   -1.2490    0.0000 C   0  0  0  0  0  0  0  0  0  0  0  0
    4.6930   -2.6190    0.0000 C   0  0  0  0  0  0  0  0  0  0  0  0
  1  2  1  0  0  0  0
  2  3  2  0  0  0  0
  2  4  1  0  0  0  0
  4  5  1  0  0  0  0
  5  6  1  0  0  0  0
M  END
>  <BIO>
0.00062

$$$$
Unnamed
  -MTS-   06200417493D 0   0.00000     0.00000     0

  7  6  0  0  0  0  0  0  0  0  1 V2000
    0.0740    0.0520    0.0000 S   0  0  0  0  0  0  0  0  0  0  0  0
    1.8400   -0.0690    0.0000 C   0  0  0  0  0  0  0  0  0  0  0  0
    2.5260    0.9520    0.0000 O   0  0  0  0  0  0  0  0  0  0  0  0
    2.5040   -1.4250    0.0000 C   0  0  0  0  0  0  0  0  0  0  0  0
    4.0220   -1.2490    0.0000 C   0  0  0  0  0  0  0  0  0  0  0  0
    4.6940   -2.6210    0.0000 C   0  0  0  0  0  0  0  0  0  0  0  0
    6.2100   -2.4450    0.0000 C   0  0  0  0  0  0  0  0  0  0  0  0
  1  2  1  0  0  0  0
  2  3  2  0  0  0  0
  2  4  1  0  0  0  0
  4  5  1  0  0  0  0
  5  6  1  0  0  0  0
  6  7  1  0  0  0  0
M  END
>  <BIO>
0.00034

$$$$
Unnamed
  -MTS-   06200417493D 0   0.00000     0.00000     0

  8  7  0  0  0  0  0  0  0  0  1 V2000
    0.0740    0.0520    0.0000 S   0  0  0  0  0  0  0  0  0  0  0  0
    1.8400   -0.0690    0.0000 C   0  0  0  0  0  0  0  0  0  0  0  0
    2.5260    0.9520    0.0000 O   0  0  0  0  0  0  0  0  0  0  0  0
    2.5040   -1.4250    0.0000 C   0  0  0  0  0  0  0  0  0  0  0  0
    4.0220   -1.2490    0.0000 C   0  0  0  0  0  0  0  0  0  0  0  0
    4.6940   -2.6210    0.0000 C   0  0  0  0  0  0  0  0  0  0  0  0
    6.2120   -2.4450    0.0000 C   0  0  0  0  0  0  0  0  0  0  0  0
    6.8830   -3.8160    0.0000 C   0  0  0  0  0  0  0  0  0  0  0  0
  1  2  1  0  0  0  0
  2  3  2  0  0  0  0
  2  4  1  0  0  0  0
  4  5  1  0  0  0  0
  5  6  1  0  0  0  0
  6  7  1  0  0  0  0
  7  8  1  0  0  0  0
M  END
>  <BIO>
2.80000

$$$$
Unnamed
  -MTS-   06200417493D 0   0.00000     0.00000     0

  9  8  0  0  0  0  0  0  0  0  1 V2000
    0.0740    0.0520    0.0000 S   0  0  0  0  0  0  0  0  0  0  0  0
    1.8400   -0.0690    0.0000 C   0  0  0  0  0  0  0  0  0  0  0  0
    2.5260    0.9520    0.0000 O   0  0  0  0  0  0  0  0  0  0  0  0
    2.5040   -1.4250    0.0000 C   0  0  0  0  0  0  0  0  0  0  0  0
    4.0220   -1.2490    0.0000 C   0  0  0  0  0  0  0  0  0  0  0  0
    4.6940   -2.6210    0.0000 C   0  0  0  0  0  0  0  0  0  0  0  0
    6.2120   -2.4450    0.0000 C   0  0  0  0  0  0  0  0  0  0  0  0
    6.8840   -3.8170    0.0000 C   0  0  0  0  0  0  0  0  0  0  0  0
    8.3990   -3.6410    0.0000 C   0  0  0  0  0  0  0  0  0  0  0  0
  1  2  1  0  0  0  0
  2  3  2  0  0  0  0
  2  4  1  0  0  0  0
  4  5  1  0  0  0  0
  5  6  1  0  0  0  0
  6  7  1  0  0  0  0
  7  8  1  0  0  0  0
  8  9  1  0  0  0  0
M  END
>  <BIO>
26.00000

$$$$
Unnamed
  -MTS-   06200417493D 0   0.00000     0.00000     0

  6  5  0  0  0  0  0  0  0  0  1 V2000
    0.0740    0.0520    0.0000 S   0  0  0  0  0  0  0  0  0  0  0  0
    1.8400   -0.0690    0.0000 C   0  0  0  0  0  0  0  0  0  0  0  0
    2.5260    0.9520    0.0000 O   0  0  0  0  0  0  0  0  0  0  0  0
    2.5040   -1.4250    0.0000 C   0  0  0  0  0  0  0  0  0  0  0  0
    4.0200   -1.2490    0.0000 C   0  0  0  0  0  0  0  0  0  0  0  0
    2.0820   -2.1980    1.2460 C   0  0  0  0  0  0  0  0  0  0  0  0
  1  2  1  0  0  0  0
  2  3  2  0  0  0  0
  2  4  1  0  0  0  0
  4  5  1  0  0  0  0
  4  6  1  0  0  0  0
M  END
>  <BIO>
0.23000

$$$$
Unnamed
  -MTS-   06200417493D 0   0.00000     0.00000     0

  6  5  0  0  0  0  0  0  0  0  1 V2000
    0.0740    0.0520    0.0000 S   0  0  0  0  0  0  0  0  0  0  0  0
    1.8400   -0.0690    0.0000 C   0  0  0  0  0  0  0  0  0  0  0  0
    2.5260    0.9520    0.0000 O   0  0  0  0  0  0  0  0  0  0  0  0
    2.4910   -1.3980    0.0000 C   0  0  0  0  0  0  0  0  0  0  0  0
    3.8280   -1.4890    0.0000 C   0  0  0  0  0  0  0  0  0  0  0  0
    4.4920   -2.8460    0.0000 C   0  0  0  0  0  0  0  0  0  0  0  0
  1  2  1  0  0  0  0
  2  3  2  0  0  0  0
  2  4  1  0  0  0  0
  4  5  2  0  0  0  0
  5  6  1  0  0  0  0
M  END
>  <BIO>
0.87000

$$$$
Unnamed
  -MTS-   06200417493D 0   0.00000     0.00000     0

  6  6  0  0  0  0  0  0  0  0  1 V2000
    0.0180   -0.0030    0.0000 S   0  0  0  0  0  0  0  0  0  0  0  0
    1.7880    0.0070    0.0000 C   0  0  0  0  0  0  0  0  0  0  0  0
    2.3970    1.0760    0.0000 O   0  0  0  0  0  0  0  0  0  0  0  0
    2.5510   -1.2960    0.0000 C   0  0  0  0  0  0  0  0  0  0  0  0
    2.9090   -1.9080   -1.3100 C   0  0  0  0  0  0  0  0  0  0  0  0
    3.9670   -1.2890   -0.4630 C   0  0  0  0  0  0  0  0  0  0  0  0
  1  2  1  0  0  0  0
  2  3  2  0  0  0  0
  2  4  1  0  0  0  0
  4  5  1  0  0  0  0
  5  6  1  0  0  0  0
  6  4  1  0  0  0  0
M  END
>  <BIO>
0.00004

$$$$
Unnamed
  -MTS-   06200417493D 0   0.00000     0.00000     0

  7  7  0  0  0  0  0  0  0  0  1 V2000
    0.0180   -0.0030    0.0000 S   0  0  0  0  0  0  0  0  0  0  0  0
    1.7880    0.0070    0.0000 C   0  0  0  0  0  0  0  0  0  0  0  0
    2.3970    1.0760    0.0000 O   0  0  0  0  0  0  0  0  0  0  0  0
    2.5510   -1.2960    0.0000 C   0  0  0  0  0  0  0  0  0  0  0  0
    2.8750   -1.8490   -1.4000 C   0  0  0  0  0  0  0  0  0  0  0  0
    2.2190   -3.1870   -1.0120 C   0  0  0  0  0  0  0  0  0  0  0  0
    1.6910   -2.5420    0.2820 C   0  0  0  0  0  0  0  0  0  0  0  0
  1  2  1  0  0  0  0
  2  3  2  0  0  0  0
  2  4  1  0  0  0  0
  4  5  1  0  0  0  0
  5  6  1  0  0  0  0
  6  7  1  0  0  0  0
  7  4  1  0  0  0  0
M  END
>  <BIO>
2.42000

$$$$
Unnamed
  -MTS-   06200417493D 0   0.00000     0.00000     0

  8  8  0  0  0  0  0  0  0  0  1 V2000
    0.0180   -0.0030    0.0000 S   0  0  0  0  0  0  0  0  0  0  0  0
    1.7880    0.0070    0.0000 C   0  0  0  0  0  0  0  0  0  0  0  0
    2.3970    1.0760    0.0000 O   0  0  0  0  0  0  0  0  0  0  0  0
    2.5510   -1.2960    0.0000 C   0  0  0  0  0  0  0  0  0  0  0  0
    2.8420   -1.7930   -1.4280 C   0  0  0  0  0  0  0  0  0  0  0  0
    4.1460   -2.6100   -1.3850 C   0  0  0  0  0  0  0  0  0  0  0  0
    4.7380   -2.3190    0.0060 C   0  0  0  0  0  0  0  0  0  0  0  0
    3.9540   -1.1410    0.6150 C   0  0  0  0  0  0  0  0  0  0  0  0
  1  2  1  0  0  0  0
  2  3  2  0  0  0  0
  2  4  1  0  0  0  0
  4  5  1  0  0  0  0
  5  6  1  0  0  0  0
  6  7  1  0  0  0  0
  7  8  1  0  0  0  0
  8  4  1  0  0  0  0
M  END
>  <BIO>
19.00000

$$$$
Unnamed
  -MTS-   06200417493D 0   0.00000     0.00000     0

  9  9  0  0  0  0  0  0  0  0  1 V2000
    0.0180   -0.0030    0.0000 S   0  0  0  0  0  0  0  0  0  0  0  0
    1.7880    0.0070    0.0000 C   0  0  0  0  0  0  0  0  0  0  0  0
    2.3970    1.0760    0.0000 O   0  0  0  0  0  0  0  0  0  0  0  0
    2.5510   -1.2960    0.0000 C   0  0  0  0  0  0  0  0  0  0  0  0
    2.8160   -1.7490   -1.4480 C   0  0  0  0  0  0  0  0  0  0  0  0
    3.6590   -3.0380   -1.4890 C   0  0  0  0  0  0  0  0  0  0  0  0
    4.9710   -2.8780   -0.6990 C   0  0  0  0  0  0  0  0  0  0  0  0
    4.7060   -2.4250    0.7480 C   0  0  0  0  0  0  0  0  0  0  0  0
    3.8630   -1.1360    0.7900 C   0  0  0  0  0  0  0  0  0  0  0  0
  1  2  1  0  0  0  0
  2  3  2  0  0  0  0
  2  4  1  0  0  0  0
  4  5  1  0  0  0  0
  5  6  1  0  0  0  0
  6  7  1  0  0  0  0
  7  8  1  0  0  0  0
  8  9  1  0  0  0  0
  9  4  1  0  0  0  0
M  END
>  <BIO>
15.90000

$$$$
Unnamed
  -MTS-   06200417493D 0   0.00000     0.00000     0

  5  4  0  0  0  0  0  0  0  0  1 V2000
    0.0740    0.0520    0.0000 S   0  0  0  0  0  0  0  0  0  0  0  0
    1.8400   -0.0690    0.0000 C   0  0  0  0  0  0  0  0  0  0  0  0
    2.5260    0.9520    0.0000 O   0  0  0  0  0  0  0  0  0  0  0  0
    2.5040   -1.4250    0.0000 C   0  0  0  0  0  0  0  0  0  0  0  0
    4.4310   -1.2010    0.0000 Br  0  0  0  0  0  0  0  0  0  0  0  0
  1  2  1  0  0  0  0
  2  3  2  0  0  0  0
  2  4  1  0  0  0  0
  4  5  1  0  0  0  0
M  END
>  <BIO>
0.00008

$$$$
Unnamed
  -MTS-   06200417493D 0   0.00000     0.00000     0

  5  4  0  0  0  0  0  0  0  0  1 V2000
    0.0740    0.0520    0.0000 S   0  0  0  0  0  0  0  0  0  0  0  0
    1.8400   -0.0690    0.0000 C   0  0  0  0  0  0  0  0  0  0  0  0
    2.5260    0.9520    0.0000 O   0  0  0  0  0  0  0  0  0  0  0  0
    2.5040   -1.4250    0.0000 C   0  0  0  0  0  0  0  0  0  0  0  0
    4.6300   -1.1780    0.0000 I   0  0  0  0  0  0  0  0  0  0  0  0
  1  2  1  0  0  0  0
  2  3  2  0  0  0  0
  2  4  1  0  0  0  0
  4  5  1  0  0  0  0
M  END
>  <BIO>
0.00155

$$$$
Unnamed
  -MTS-   06200417493D 0   0.00000     0.00000     0

  7  6  0  0  0  0  0  0  0  0  1 V2000
    0.0740    0.0520    0.0000 S   0  0  0  0  0  0  0  0  0  0  0  0
    1.8400   -0.0690    0.0000 C   0  0  0  0  0  0  0  0  0  0  0  0
    2.5260    0.9520    0.0000 O   0  0  0  0  0  0  0  0  0  0  0  0
    2.5040   -1.4250    0.0000 C   0  0  0  0  0  0  0  0  0  0  0  0
    3.8250   -1.2720    0.0000 F   0  0  0  0  0  0  0  0  0  0  0  0
    2.1360   -2.0990    1.0860 F   0  0  0  0  0  0  0  0  0  0  0  0
    2.1360   -2.0990   -1.0860 F   0  0  0  0  0  0  0  0  0  0  0  0
  1  2  1  0  0  0  0
  2  3  2  0  0  0  0
  2  4  1  0  0  0  0
  4  5  1  0  0  0  0
  4  6  1  0  0  0  0
  4  7  1  0  0  0  0
M  END
>  <BIO>
0.00003

$$$$
Unnamed
  -MTS-   06200417493D 0   0.00000     0.00000     0

 10 10  0  0  0  0  0  0  0  0  1 V2000
    0.0180   -0.0030    0.0000 S   0  0  0  0  0  0  0  0  0  0  0  0
    1.7880    0.0070    0.0000 C   0  0  0  0  0  0  0  0  0  0  0  0
    2.3970    1.0760    0.0000 O   0  0  0  0  0  0  0  0  0  0  0  0
    2.5360   -1.2700    0.0000 C   0  0  0  0  0  0  0  0  0  0  0  0
    2.8890   -1.8740   -1.2120 C   0  0  0  0  0  0  0  0  0  0  0  0
    3.5970   -3.0820   -1.2120 C   0  0  0  0  0  0  0  0  0  0  0  0
    4.0260   -3.8160   -2.6850 Cl  0  0  0  0  0  0  0  0  0  0  0  0
    3.9500   -3.6860    0.0000 C   0  0  0  0  0  0  0  0  0  0  0  0
    3.5970   -3.0820    1.2120 C   0  0  0  0  0  0  0  0  0  0  0  0
    2.8900   -1.8740    1.2120 C   0  0  0  0  0  0  0  0  0  0  0  0
  1  2  1  0  0  0  0
  2  3  2  0  0  0  0
  2  4  1  0  0  0  0
  4  5  2  0  0  0  0
  5  6  1  0  0  0  0
  6  7  1  0  0  0  0
  6  8  2  0  0  0  0
  8  9  1  0  0  0  0
  9 10  2  0  0  0  0
 10  4  1  0  0  0  0
M  END
>  <BIO>
0.00160

$$$$
Unnamed
  -MTS-   06200417493D 0   0.00000     0.00000     0

  9  9  0  0  0  0  0  0  0  0  1 V2000
    0.0180   -0.0030    0.0000 S   0  0  0  0  0  0  0  0  0  0  0  0
    1.7880    0.0070    0.0000 C   0  0  0  0  0  0  0  0  0  0  0  0
    2.3970    1.0760    0.0000 O   0  0  0  0  0  0  0  0  0  0  0  0
    2.5360   -1.2700    0.0000 C   0  0  0  0  0  0  0  0  0  0  0  0
    2.8890   -1.8740   -1.2120 C   0  0  0  0  0  0  0  0  0  0  0  0
    3.5970   -3.0820   -1.2120 C   0  0  0  0  0  0  0  0  0  0  0  0
    3.9500   -3.6860    0.0000 C   0  0  0  0  0  0  0  0  0  0  0  0
    3.5970   -3.0820    1.2120 C   0  0  0  0  0  0  0  0  0  0  0  0
    2.8890   -1.8740    1.2120 C   0  0  0  0  0  0  0  0  0  0  0  0
  1  2  1  0  0  0  0
  2  3  2  0  0  0  0
  2  4  1  0  0  0  0
  4  5  2  0  0  0  0
  5  6  1  0  0  0  0
  6  7  2  0  0  0  0
  7  8  1  0  0  0  0
  8  9  2  0  0  0  0
  9  4  1  0  0  0  0
M  END
>  <BIO>
49.90000

$$$$
Unnamed
  -MTS-   06200417493D 0   0.00000     0.00000     0

 11 11  0  0  0  0  0  0  0  0  1 V2000
    0.0180   -0.0030    0.0000 S   0  0  0  0  0  0  0  0  0  0  0  0
    1.7880    0.0070    0.0000 C   0  0  0  0  0  0  0  0  0  0  0  0
    2.3970    1.0760    0.0000 O   0  0  0  0  0  0  0  0  0  0  0  0
    2.5360   -1.2700    0.0000 C   0  0  0  0  0  0  0  0  0  0  0  0
    2.8890   -1.8740   -1.2120 C   0  0  0  0  0  0  0  0  0  0  0  0
    3.5960   -3.0820   -1.2120 C   0  0  0  0  0  0  0  0  0  0  0  0
    4.0260   -3.8160   -2.6850 Cl  0  0  0  0  0  0  0  0  0  0  0  0
    3.9500   -3.6870    0.0000 C   0  0  0  0  0  0  0  0  0  0  0  0
    3.5970   -3.0820    1.2130 C   0  0  0  0  0  0  0  0  0  0  0  0
    4.0260   -3.8160    2.6850 Cl  0  0  0  0  0  0  0  0  0  0  0  0
    2.8890   -1.8740    1.2120 C   0  0  0  0  0  0  0  0  0  0  0  0
  1  2  1  0  0  0  0
  2  3  2  0  0  0  0
  2  4  1  0  0  0  0
  4  5  2  0  0  0  0
  5  6  1  0  0  0  0
  6  7  1  0  0  0  0
  6  8  2  0  0  0  0
  8  9  1  0  0  0  0
  9 10  1  0  0  0  0
  9 11  2  0  0  0  0
 11  4  1  0  0  0  0
M  END
>  <BIO>
113.00000

$$$$
Unnamed
  -MTS-   06200417493D 0   0.00000     0.00000     0

 12 13  0  0  0  0  0  0  0  0  1 V2000
   -0.0220    0.1380    0.0000 S   0  0  0  0  0  0  0  0  0  0  0  0
    1.7630    0.0370    0.0000 C   0  0  0  0  0  0  0  0  0  0  0  0
    2.4510    1.0460    0.0020 O   0  0  0  0  0  0  0  0  0  0  0  0
    2.4680   -1.3050    0.0000 C   0  0  0  0  0  0  0  0  0  0  0  0
    2.7910   -1.9330    1.2060 C   0  0  0  0  0  0  0  0  0  0  0  0
    3.3520   -3.0800    0.6850 C   0  0  0  0  0  0  0  0  0  0  0  0
    3.9240   -4.2430    1.1950 C   0  0  0  0  0  0  0  0  0  0  0  0
    4.3660   -5.1770    0.2510 C   0  0  0  0  0  0  0  0  0  0  0  0
    4.2240   -4.9260   -1.1220 C   0  0  0  0  0  0  0  0  0  0  0  0
    3.6430   -3.7410   -1.5940 C   0  0  0  0  0  0  0  0  0  0  0  0
    3.2030   -2.7910   -0.6620 C   0  0  0  0  0  0  0  0  0  0  0  0
    2.7600   -1.8610   -0.8490 N   0  0  0  0  0  0  0  0  0  0  0  0
  1  2  1  0  0  0  0
  2  3  2  0  0  0  0
  2  4  1  0  0  0  0
  4  5  2  0  0  0  0
  5  6  1  0  0  0  0
  6  7  2  0  0  0  0
  7  8  1  0  0  0  0
  8  9  2  0  0  0  0
  9 10  1  0  0  0  0
 10 11  2  0  0  0  0
 11  6  1  0  0  0  0
 11 12  1  0  0  0  0
 12  4  1  0  0  0  0
M  END
>  <BIO>
11.70000

$$$$
Unnamed
  -MTS-   06200417493D 0   0.00000     0.00000     0

 10 10  0  0  0  0  0  0  0  0  1 V2000
    0.0180   -0.0030    0.0000 S   0  0  0  0  0  0  0  0  0  0  0  0
    1.7880    0.0070    0.0000 C   0  0  0  0  0  0  0  0  0  0  0  0
    2.3970    1.0760    0.0000 O   0  0  0  0  0  0  0  0  0  0  0  0
    2.5510   -1.2960    0.0000 C   0  0  0  0  0  0  0  0  0  0  0  0
    4.0340   -1.0110    0.0000 C   0  0  0  0  0  0  0  0  0  0  0  0
    4.7210   -0.8790    1.2130 C   0  0  0  0  0  0  0  0  0  0  0  0
    6.0960   -0.6150    1.2130 C   0  0  0  0  0  0  0  0  0  0  0  0
    6.7840   -0.4830    0.0000 C   0  0  0  0  0  0  0  0  0  0  0  0
    6.0960   -0.6150   -1.2120 C   0  0  0  0  0  0  0  0  0  0  0  0
    4.7210   -0.8790   -1.2120 C   0  0  0  0  0  0  0  0  0  0  0  0
  1  2  1  0  0  0  0
  2  3  2  0  0  0  0
  2  4  1  0  0  0  0
  4  5  1  0  0  0  0
  5  6  2  0  0  0  0
  6  7  1  0  0  0  0
  7  8  2  0  0  0  0
  8  9  1  0  0  0  0
  9 10  2  0  0  0  0
 10  5  1  0  0  0  0
M  END
>  <BIO>
19.60000

$$$$
Unnamed
  -MTS-   06200417493D 0   0.00000     0.00000     0

 16 17  0  0  0  0  0  0  0  0  1 V2000
    0.0180   -0.0030    0.0000 S   0  0  0  0  0  0  0  0  0  0  0  0
    1.7880    0.0070    0.0000 C   0  0  0  0  0  0  0  0  0  0  0  0
    2.3970    1.0760    0.0000 O   0  0  0  0  0  0  0  0  0  0  0  0
    2.5510   -1.2960    0.0000 C   0  0  0  0  0  0  0  0  0  0  0  0
    4.0340   -1.0110    0.0000 C   0  0  0  0  0  0  0  0  0  0  0  0
    4.7210   -0.8790    1.2120 C   0  0  0  0  0  0  0  0  0  0  0  0
    6.0960   -0.6150    1.2120 C   0  0  0  0  0  0  0  0  0  0  0  0
    6.7840   -0.4830    0.0000 C   0  0  0  0  0  0  0  0  0  0  0  0
    6.0960   -0.6150   -1.2130 C   0  0  0  0  0  0  0  0  0  0  0  0
    4.7210   -0.8790   -1.2120 C   0  0  0  0  0  0  0  0  0  0  0  0
    2.1910   -2.0900    1.2330 C   0  0  0  0  0  0  0  0  0  0  0  0
    1.1180   -2.9880    1.1980 C   0  0  0  0  0  0  0  0  0  0  0  0
    0.7840   -3.7250    2.3410 C   0  0  0  0  0  0  0  0  0  0  0  0
    1.5240   -3.5620    3.5190 C   0  0  0  0  0  0  0  0  0  0  0  0
    2.5970   -2.6640    3.5540 C   0  0  0  0  0  0  0  0  0  0  0  0
    2.9300   -1.9270    2.4110 C   0  0  0  0  0  0  0  0  0  0  0  0
  1  2  1  0  0  0  0
  2  3  2  0  0  0  0
  2  4  1  0  0  0  0
  4  5  1  0  0  0  0
  5  6  2  0  0  0  0
  6  7  1  0  0  0  0
  7  8  2  0  0  0  0
  8  9  1  0  0  0  0
  9 10  2  0  0  0  0
 10  5  1  0  0  0  0
  4 11  1  0  0  0  0
 11 12  2  0  0  0  0
 12 13  1  0  0  0  0
 13 14  2  0  0  0  0
 14 15  1  0  0  0  0
 15 16  2  0  0  0  0
 16 11  1  0  0  0  0
M  END
>  <BIO>
27.60000

$$$$
Unnamed
  -MTS-   06200417493D 0   0.00000     0.00000     0

 11 11  0  0  0  0  0  0  0  0  1 V2000
    0.0180   -0.0030    0.0000 S   0  0  0  0  0  0  0  0  0  0  0  0
    1.7880    0.0070    0.0000 C   0  0  0  0  0  0  0  0  0  0  0  0
    2.3970    1.0760    0.0000 O   0  0  0  0  0  0  0  0  0  0  0  0
    2.5510   -1.2960    0.0000 C   0  0  0  0  0  0  0  0  0  0  0  0
    4.0520   -1.0080    0.0000 C   0  0  0  0  0  0  0  0  0  0  0  0
    4.8140   -2.3110    0.0000 C   0  0  0  0  0  0  0  0  0  0  0  0
    5.1680   -2.9150   -1.2120 C   0  0  0  0  0  0  0  0  0  0  0  0
    5.8750   -4.1230   -1.2130 C   0  0  0  0  0  0  0  0  0  0  0  0
    6.2290   -4.7270    0.0000 C   0  0  0  0  0  0  0  0  0  0  0  0
    5.8750   -4.1230    1.2120 C   0  0  0  0  0  0  0  0  0  0  0  0
    5.1680   -2.9150    1.2120 C   0  0  0  0  0  0  0  0  0  0  0  0
  1  2  1  0  0  0  0
  2  3  2  0  0  0  0
  2  4  1  0  0  0  0
  4  5  1  0  0  0  0
  5  6  1  0  0  0  0
  6  7  2  0  0  0  0
  7  8  1  0  0  0  0
  8  9  2  0  0  0  0
  9 10  1  0  0  0  0
 10 11  2  0  0  0  0
 11  6  1  0  0  0  0
M  END
>  <BIO>
9.62000

$$$$
Unnamed
  -MTS-   06200417493D 0   0.00000     0.00000     0

 12 12  0  0  0  0  0  0  0  0  1 V2000
    0.0180   -0.0030    0.0000 S   0  0  0  0  0  0  0  0  0  0  0  0
    1.7880    0.0070    0.0000 C   0  0  0  0  0  0  0  0  0  0  0  0
    2.3970    1.0760    0.0000 O   0  0  0  0  0  0  0  0  0  0  0  0
    2.5510   -1.2960    0.0000 C   0  0  0  0  0  0  0  0  0  0  0  0
    4.0520   -1.0080    0.0000 C   0  0  0  0  0  0  0  0  0  0  0  0
    4.8230   -2.3260    0.0000 C   0  0  0  0  0  0  0  0  0  0  0  0
    6.3060   -2.0420    0.0000 C   0  0  0  0  0  0  0  0  0  0  0  0
    6.9940   -1.9100    1.2120 C   0  0  0  0  0  0  0  0  0  0  0  0
    8.3690   -1.6450    1.2120 C   0  0  0  0  0  0  0  0  0  0  0  0
    9.0560   -1.5130    0.0000 C   0  0  0  0  0  0  0  0  0  0  0  0
    8.3690   -1.6450   -1.2120 C   0  0  0  0  0  0  0  0  0  0  0  0
    6.9940   -1.9100   -1.2120 C   0  0  0  0  0  0  0  0  0  0  0  0
  1  2  1  0  0  0  0
  2  3  2  0  0  0  0
  2  4  1  0  0  0  0
  4  5  1  0  0  0  0
  5  6  1  0  0  0  0
  6  7  1  0  0  0  0
  7  8  2  0  0  0  0
  8  9  1  0  0  0  0
  9 10  2  0  0  0  0
 10 11  1  0  0  0  0
 11 12  2  0  0  0  0
 12  7  1  0  0  0  0
M  END
>  <BIO>
1.20000

$$$$
Unnamed
  -MTS-   06200417493D 0   0.00000     0.00000     0

 10 10  0  0  0  0  0  0  0  0  1 V2000
    0.0180   -0.0030    0.0000 S   0  0  0  0  0  0  0  0  0  0  0  0
    1.7880    0.0070    0.0000 C   0  0  0  0  0  0  0  0  0  0  0  0
    2.3970    1.0760    0.0000 O   0  0  0  0  0  0  0  0  0  0  0  0
    2.5510   -1.2960    0.0000 C   0  0  0  0  0  0  0  0  0  0  0  0
    3.9950   -1.0190    0.0000 N   0  0  0  0  0  0  0  0  0  0  0  0
    4.4760   -0.9260    1.3860 C   0  0  0  0  0  0  0  0  0  0  0  0
    6.0100   -0.7970    1.4330 C   0  0  0  0  0  0  0  0  0  0  0  0
    6.6440   -1.8630    0.7220 O   0  0  0  0  0  0  0  0  0  0  0  0
    6.2230   -1.9160   -0.6440 C   0  0  0  0  0  0  0  0  0  0  0  0
    4.6950   -2.0750   -0.7450 C   0  0  0  0  0  0  0  0  0  0  0  0
  1  2  1  0  0  0  0
  2  3  2  0  0  0  0
  2  4  1  0  0  0  0
  4  5  1  0  0  0  0
  5  6  1  0  0  0  0
  6  7  1  0  0  0  0
  7  8  1  0  0  0  0
  8  9  1  0  0  0  0
  9 10  1  0  0  0  0
 10  5  1  0  0  0  0
M  END
>  <BIO>
1.61000

$$$$
Unnamed
  -MTS-   06200417493D 0   0.00000     0.00000     0

 23 24  0  0  0  0  0  0  0  0  1 V2000
    0.0180   -0.0030    0.0000 S   0  0  0  0  0  0  0  0  0  0  0  0
    1.7880    0.0070    0.0000 C   0  0  0  0  0  0  0  0  0  0  0  0
    2.3970    1.0760    0.0000 O   0  0  0  0  0  0  0  0  0  0  0  0
    2.5510   -1.2960    0.0000 C   0  0  0  0  0  0  0  0  0  0  0  0
    3.9950   -1.0190    0.0000 N   0  0  0  0  0  0  0  0  0  0  0  0
    4.4740   -0.9260    1.3870 C   0  0  0  0  0  0  0  0  0  0  0  0
    5.9990   -0.7230    1.4410 C   0  0  0  0  0  0  0  0  0  0  0  0
    6.7030   -1.7760    0.6940 N   0  0  0  0  0  0  0  0  0  0  0  0
    8.1460   -1.4930    0.6920 C   0  0  0  0  0  0  0  0  0  0  0  0
    8.7890   -2.1480    1.8910 C   0  0  0  0  0  0  0  0  0  0  0  0
    9.2820   -3.4540    1.7950 C   0  0  0  0  0  0  0  0  0  0  0  0
    9.1820   -4.1390    0.6130 O   0  0  0  0  0  0  0  0  0  0  0  0
   10.2570   -4.0240   -0.3230 C   0  0  0  0  0  0  0  0  0  0  0  0
    9.8790   -4.0610    2.9070 C   0  0  0  0  0  0  0  0  0  0  0  0
   10.3620   -5.3400    2.8130 O   0  0  0  0  0  0  0  0  0  0  0  0
   11.7220   -5.5160    2.4100 C   0  0  0  0  0  0  0  0  0  0  0  0
    9.9810   -3.3610    4.1150 C   0  0  0  0  0  0  0  0  0  0  0  0
   10.5650   -3.9550    5.2030 O   0  0  0  0  0  0  0  0  0  0  0  0
    9.7270   -4.6970    6.0930 C   0  0  0  0  0  0  0  0  0  0  0  0
    9.4880   -2.0550    4.2110 C   0  0  0  0  0  0  0  0  0  0  0  0
    8.8920   -1.4480    3.0990 C   0  0  0  0  0  0  0  0  0  0  0  0
    6.2210   -1.8650   -0.6910 C   0  0  0  0  0  0  0  0  0  0  0  0
    4.6960   -2.0710   -0.7490 C   0  0  0  0  0  0  0  0  0  0  0  0
  1  2  1  0  0  0  0
  2  3  2  0  0  0  0
  2  4  1  0  0  0  0
  4  5  1  0  0  0  0
  5  6  1  0  0  0  0
  6  7  1  0  0  0  0
  7  8  1  0  0  0  0
  8  9  1  0  0  0  0
  9 10  1  0  0  0  0
 10 11  2  0  0  0  0
 11 12  1  0  0  0  0
 12 13  1  0  0  0  0
 11 14  1  0  0  0  0
 14 15  1  0  0  0  0
 15 16  1  0  0  0  0
 14 17  2  0  0  0  0
 17 18  1  0  0  0  0
 18 19  1  0  0  0  0
 17 20  1  0  0  0  0
 20 21  2  0  0  0  0
 21 10  1  0  0  0  0
  8 22  1  0  0  0  0
 22 23  1  0  0  0  0
 23  5  1  0  0  0  0
M  END
>  <BIO>
10.50000

$$$$
