Unnamed
  -MTS-   06200417523D 0   0.00000     0.00000     0

  2  1  0  0  0  0  0  0  0  0  1 V2000
    0.0560    0.0550    0.0000 S   0  0  0  0  0  0  0  0  0  0  0  0
    1.8710   -0.0770    0.0000 C   0  0  0  0  0  0  0  0  0  0  0  0
  1  2  1  0  0  0  0
M  END
>  <BIO>
0.06

$$$$
Unnamed
  -MTS-   06200417523D 0   0.00000     0.00000     0

  3  2  0  0  0  0  0  0  0  0  1 V2000
    0.0560    0.0550    0.0000 S   0  0  0  0  0  0  0  0  0  0  0  0
    1.8710   -0.0770    0.0000 C   0  0  0  0  0  0  0  0  0  0  0  0
    2.2730   -1.5490    0.0000 C   0  0  0  0  0  0  0  0  0  0  0  0
  1  2  1  0  0  0  0
  2  3  1  0  0  0  0
M  END
>  <BIO>
0.05

$$$$
Unnamed
  -MTS-   06200417523D 0   0.00000     0.00000     0

  4  3  0  0  0  0  0  0  0  0  1 V2000
    0.0560    0.0550    0.0000 S   0  0  0  0  0  0  0  0  0  0  0  0
    1.8710   -0.0770    0.0000 C   0  0  0  0  0  0  0  0  0  0  0  0
    2.2740   -1.5510    0.0000 C   0  0  0  0  0  0  0  0  0  0  0  0
    3.7960   -1.6620    0.0000 C   0  0  0  0  0  0  0  0  0  0  0  0
  1  2  1  0  0  0  0
  2  3  1  0  0  0  0
  3  4  1  0  0  0  0
M  END
>  <BIO>
0.06

$$$$
Unnamed
  -MTS-   06200417523D 0   0.00000     0.00000     0

  5  4  0  0  0  0  0  0  0  0  1 V2000
    0.0520    0.0560    0.0000 S   0  0  0  0  0  0  0  0  0  0  0  0
    1.8770   -0.0790    0.0000 C   0  0  0  0  0  0  0  0  0  0  0  0
    2.2270   -1.3620    0.0000 F   0  0  0  0  0  0  0  0  0  0  0  0
    2.3650    0.5140   -1.0860 F   0  0  0  0  0  0  0  0  0  0  0  0
    2.3650    0.5140    1.0860 F   0  0  0  0  0  0  0  0  0  0  0  0
  1  2  1  0  0  0  0
  2  3  1  0  0  0  0
  2  4  1  0  0  0  0
  2  5  1  0  0  0  0
M  END
>  <BIO>
0.02

$$$$
Unnamed
  -MTS-   06200417523D 0   0.00000     0.00000     0

  4  4  0  0  0  0  0  0  0  0  1 V2000
   -0.0010    0.0000    0.0000 S   0  0  0  0  0  0  0  0  0  0  0  0
    1.8190    0.0000    0.0000 C   0  0  0  0  0  0  0  0  0  0  0  0
    2.5280   -0.0010    1.3100 C   0  0  0  0  0  0  0  0  0  0  0  0
    2.5280   -1.2260    0.4630 C   0  0  0  0  0  0  0  0  0  0  0  0
  1  2  1  0  0  0  0
  2  3  1  0  0  0  0
  3  4  1  0  0  0  0
  4  2  1  0  0  0  0
M  END
>  <BIO>
0.30

$$$$
str5
  -MTS-   06200417523D 0   0.00000     0.00000     0

  5  5  0  0  0  0  0  0  0  0  1 V2000
   -0.0010    0.0000    0.0000 S   0  0  0  0  0  0  0  0  0  0  0  0
    1.8190    0.0000    0.0000 C   0  0  0  0  0  0  0  0  0  0  0  0
    2.4590   -1.3710   -0.2820 C   0  0  0  0  0  0  0  0  0  0  0  0
    3.2840   -1.2410    1.0120 C   0  0  0  0  0  0  0  0  0  0  0  0
    2.4600    0.0000    1.4000 C   0  0  0  0  0  0  0  0  0  0  0  0
  1  2  1  0  0  0  0
  2  3  1  0  0  0  0
  3  4  1  0  0  0  0
  4  5  1  0  0  0  0
  5  2  1  0  0  0  0
M  END
>  <BIO>
2.70

$$$$
Unnamed
  -MTS-   06200417523D 0   0.00000     0.00000     0

  6  6  0  0  0  0  0  0  0  0  1 V2000
   -0.0010    0.0000    0.0000 S   0  0  0  0  0  0  0  0  0  0  0  0
    1.8190    0.0000    0.0000 C   0  0  0  0  0  0  0  0  0  0  0  0
    2.3950    0.0000    1.4280 C   0  0  0  0  0  0  0  0  0  0  0  0
    3.7590   -0.7130    1.3850 C   0  0  0  0  0  0  0  0  0  0  0  0
    3.8060   -1.3710   -0.0060 C   0  0  0  0  0  0  0  0  0  0  0  0
    2.3940   -1.2900   -0.6150 C   0  0  0  0  0  0  0  0  0  0  0  0
  1  2  1  0  0  0  0
  2  3  1  0  0  0  0
  3  4  1  0  0  0  0
  4  5  1  0  0  0  0
  5  6  1  0  0  0  0
  6  2  1  0  0  0  0
M  END
>  <BIO>
32.80

$$$$
Unnamed
  -MTS-   06200417523D 0   0.00000     0.00000     0

  7  7  0  0  0  0  0  0  0  0  1 V2000
   -0.0010    0.0000    0.0000 S   0  0  0  0  0  0  0  0  0  0  0  0
    1.8190    0.0000    0.0000 C   0  0  0  0  0  0  0  0  0  0  0  0
    2.3440   -0.0010    1.4480 C   0  0  0  0  0  0  0  0  0  0  0  0
    3.8820   -0.0770    1.4890 C   0  0  0  0  0  0  0  0  0  0  0  0
    4.4070   -1.2900    0.6990 C   0  0  0  0  0  0  0  0  0  0  0  0
    3.8810   -1.2900   -0.7490 C   0  0  0  0  0  0  0  0  0  0  0  0
    2.3440   -1.2140   -0.7900 C   0  0  0  0  0  0  0  0  0  0  0  0
  1  2  1  0  0  0  0
  2  3  1  0  0  0  0
  3  4  1  0  0  0  0
  4  5  1  0  0  0  0
  5  6  1  0  0  0  0
  6  7  1  0  0  0  0
  7  2  1  0  0  0  0
M  END
>  <BIO>
216.00

$$$$
Unnamed
  -MTS-   06200417523D 0   0.00000     0.00000     0

 11 13  0  0  0  0  0  0  0  0  1 V2000
   -0.0010    0.0000    0.0000 S   0  0  0  0  0  0  0  0  0  0  0  0
    1.8190    0.0000    0.0000 C   0  0  0  0  0  0  0  0  0  0  0  0
    2.3440    0.0000    1.4480 C   0  0  0  0  0  0  0  0  0  0  0  0
    3.8830   -0.0220    1.4360 C   0  0  0  0  0  0  0  0  0  0  0  0
    4.4090    1.2240    0.6990 C   0  0  0  0  0  0  0  0  0  0  0  0
    3.8840    1.2240   -0.7490 C   0  0  0  0  0  0  0  0  0  0  0  0
    4.3740   -0.0440   -1.4720 C   0  0  0  0  0  0  0  0  0  0  0  0
    3.8480   -1.2900   -0.7360 C   0  0  0  0  0  0  0  0  0  0  0  0
    2.3090   -1.2680   -0.7240 C   0  0  0  0  0  0  0  0  0  0  0  0
    4.3730   -1.2900    0.7120 C   0  0  0  0  0  0  0  0  0  0  0  0
    2.3440    1.2460   -0.7360 C   0  0  0  0  0  0  0  0  0  0  0  0
  1  2  1  0  0  0  0
  2  3  1  0  0  0  0
  3  4  1  0  0  0  0
  4  5  1  0  0  0  0
  5  6  1  0  0  0  0
  6  7  1  0  0  0  0
  7  8  1  0  0  0  0
  8  9  1  0  0  0  0
  9  2  1  0  0  0  0
  8 10  1  0  0  0  0
 10  4  1  0  0  0  0
  6 11  1  0  0  0  0
 11  2  1  0  0  0  0
M  END
>  <BIO>
1100.00

$$$$
Unnamed
  -MTS-   06200417523D 0   0.00000     0.00000     0

  9  9  0  0  0  0  0  0  0  0  1 V2000
   -0.0010    0.0000    0.0000 S   0  0  0  0  0  0  0  0  0  0  0  0
    1.8190    0.0000    0.0000 C   0  0  0  0  0  0  0  0  0  0  0  0
    2.3280   -1.4410    0.0000 C   0  0  0  0  0  0  0  0  0  0  0  0
    3.8380   -1.4410    0.0000 C   0  0  0  0  0  0  0  0  0  0  0  0
    4.5380   -1.4410    1.2130 C   0  0  0  0  0  0  0  0  0  0  0  0
    5.9380   -1.4420    1.2130 C   0  0  0  0  0  0  0  0  0  0  0  0
    6.6380   -1.4420    0.0000 C   0  0  0  0  0  0  0  0  0  0  0  0
    5.9380   -1.4420   -1.2120 C   0  0  0  0  0  0  0  0  0  0  0  0
    4.5380   -1.4410   -1.2120 C   0  0  0  0  0  0  0  0  0  0  0  0
  1  2  1  0  0  0  0
  2  3  1  0  0  0  0
  3  4  1  0  0  0  0
  4  5  2  0  0  0  0
  5  6  1  0  0  0  0
  6  7  2  0  0  0  0
  7  8  1  0  0  0  0
  8  9  2  0  0  0  0
  9  4  1  0  0  0  0
M  END
>  <BIO>
263.00

$$$$
