Unnamed
  -MTS-   06200417533D 0   0.00000     0.00000     0

  8  8  0  0  0  0  0  0  0  0  1 V2000
   -0.0010    0.0000    0.0000 S   0  0  0  0  0  0  0  0  0  0  0  0
    1.8190    0.0000    0.0000 C   0  0  0  0  0  0  0  0  0  0  0  0
    2.3220   -1.4240    0.0000 C   0  0  0  0  0  0  0  0  0  0  0  0
    2.5550   -2.0840   -1.2120 C   0  0  0  0  0  0  0  0  0  0  0  0
    3.0210   -3.4040   -1.2130 C   0  0  0  0  0  0  0  0  0  0  0  0
    3.2550   -4.0640    0.0000 C   0  0  0  0  0  0  0  0  0  0  0  0
    3.0210   -3.4040    1.2120 C   0  0  0  0  0  0  0  0  0  0  0  0
    2.5550   -2.0840    1.2120 C   0  0  0  0  0  0  0  0  0  0  0  0
  1  2  1  0  0  0  0
  2  3  1  0  0  0  0
  3  4  2  0  0  0  0
  4  5  1  0  0  0  0
  5  6  2  0  0  0  0
  6  7  1  0  0  0  0
  7  8  2  0  0  0  0
  8  3  1  0  0  0  0
M  END
>  <BIO>
1.73

$$$$
Unnamed
  -MTS-   06200417533D 0   0.00000     0.00000     0

  9  9  0  0  0  0  0  0  0  0  1 V2000
   -0.0010    0.0000    0.0000 S   0  0  0  0  0  0  0  0  0  0  0  0
    1.8190    0.0000    0.0000 C   0  0  0  0  0  0  0  0  0  0  0  0
    2.3220   -1.4240    0.0000 C   0  0  0  0  0  0  0  0  0  0  0  0
    2.5550   -2.0840   -1.2120 C   0  0  0  0  0  0  0  0  0  0  0  0
    3.0220   -3.4040   -1.2120 C   0  0  0  0  0  0  0  0  0  0  0  0
    3.2550   -4.0640    0.0000 C   0  0  0  0  0  0  0  0  0  0  0  0
    3.6980   -5.3180    0.0000 F   0  0  0  0  0  0  0  0  0  0  0  0
    3.0210   -3.4040    1.2130 C   0  0  0  0  0  0  0  0  0  0  0  0
    2.5550   -2.0840    1.2130 C   0  0  0  0  0  0  0  0  0  0  0  0
  1  2  1  0  0  0  0
  2  3  1  0  0  0  0
  3  4  2  0  0  0  0
  4  5  1  0  0  0  0
  5  6  2  0  0  0  0
  6  7  1  0  0  0  0
  6  8  1  0  0  0  0
  8  9  2  0  0  0  0
  9  3  1  0  0  0  0
M  END
>  <BIO>
703.00

$$$$
Unnamed
  -MTS-   06200417533D 0   0.00000     0.00000     0

  9  9  0  0  0  0  0  0  0  0  1 V2000
   -0.0010    0.0000    0.0000 S   0  0  0  0  0  0  0  0  0  0  0  0
    1.8190    0.0000    0.0000 C   0  0  0  0  0  0  0  0  0  0  0  0
    2.3220   -1.4240    0.0000 C   0  0  0  0  0  0  0  0  0  0  0  0
    2.5550   -2.0840   -1.2130 C   0  0  0  0  0  0  0  0  0  0  0  0
    3.0210   -3.4040   -1.2130 C   0  0  0  0  0  0  0  0  0  0  0  0
    3.2430   -4.0310   -2.3640 F   0  0  0  0  0  0  0  0  0  0  0  0
    3.2550   -4.0640    0.0000 C   0  0  0  0  0  0  0  0  0  0  0  0
    3.0210   -3.4040    1.2120 C   0  0  0  0  0  0  0  0  0  0  0  0
    2.5550   -2.0840    1.2120 C   0  0  0  0  0  0  0  0  0  0  0  0
  1  2  1  0  0  0  0
  2  3  1  0  0  0  0
  3  4  2  0  0  0  0
  4  5  1  0  0  0  0
  5  6  1  0  0  0  0
  5  7  2  0  0  0  0
  7  8  1  0  0  0  0
  8  9  2  0  0  0  0
  9  3  1  0  0  0  0
M  END
>  <BIO>
15.00

$$$$
Unnamed
  -MTS-   06200417533D 0   0.00000     0.00000     0

  9  9  0  0  0  0  0  0  0  0  1 V2000
   -0.0010    0.0000    0.0000 S   0  0  0  0  0  0  0  0  0  0  0  0
    1.8190    0.0000    0.0000 C   0  0  0  0  0  0  0  0  0  0  0  0
    2.3220   -1.4240    0.0000 C   0  0  0  0  0  0  0  0  0  0  0  0
    2.5550   -2.0840   -1.2120 C   0  0  0  0  0  0  0  0  0  0  0  0
    3.0210   -3.4040   -1.2120 C   0  0  0  0  0  0  0  0  0  0  0  0
    3.2550   -4.0640    0.0000 C   0  0  0  0  0  0  0  0  0  0  0  0
    3.7580   -5.4880    0.0000 C   0  0  0  0  0  0  0  0  0  0  0  0
    3.0210   -3.4040    1.2120 C   0  0  0  0  0  0  0  0  0  0  0  0
    2.5550   -2.0840    1.2120 C   0  0  0  0  0  0  0  0  0  0  0  0
  1  2  1  0  0  0  0
  2  3  1  0  0  0  0
  3  4  2  0  0  0  0
  4  5  1  0  0  0  0
  5  6  2  0  0  0  0
  6  7  1  0  0  0  0
  6  8  1  0  0  0  0
  8  9  2  0  0  0  0
  9  3  1  0  0  0  0
M  END
>  <BIO>
2650.00

$$$$
Unnamed
  -MTS-   06200417533D 0   0.00000     0.00000     0

 13 13  0  0  0  0  0  0  0  0  1 V2000
   -0.0010    0.0000    0.0000 S   0  0  0  0  0  0  0  0  0  0  0  0
    1.8190    0.0000    0.0000 C   0  0  0  0  0  0  0  0  0  0  0  0
    2.3220   -1.4240    0.0000 C   0  0  0  0  0  0  0  0  0  0  0  0
    2.5550   -2.0840   -1.2120 C   0  0  0  0  0  0  0  0  0  0  0  0
    2.3330   -1.4570   -2.3640 F   0  0  0  0  0  0  0  0  0  0  0  0
    3.0210   -3.4040   -1.2120 C   0  0  0  0  0  0  0  0  0  0  0  0
    3.2430   -4.0310   -2.3640 F   0  0  0  0  0  0  0  0  0  0  0  0
    3.2550   -4.0640    0.0000 C   0  0  0  0  0  0  0  0  0  0  0  0
    3.6980   -5.3180    0.0000 F   0  0  0  0  0  0  0  0  0  0  0  0
    3.0210   -3.4040    1.2120 C   0  0  0  0  0  0  0  0  0  0  0  0
    3.2430   -4.0310    2.3640 F   0  0  0  0  0  0  0  0  0  0  0  0
    2.5550   -2.0840    1.2130 C   0  0  0  0  0  0  0  0  0  0  0  0
    2.3340   -1.4570    2.3640 F   0  0  0  0  0  0  0  0  0  0  0  0
  1  2  1  0  0  0  0
  2  3  1  0  0  0  0
  3  4  2  0  0  0  0
  4  5  1  0  0  0  0
  4  6  1  0  0  0  0
  6  7  1  0  0  0  0
  6  8  2  0  0  0  0
  8  9  1  0  0  0  0
  8 10  1  0  0  0  0
 10 11  1  0  0  0  0
 10 12  2  0  0  0  0
 12  3  1  0  0  0  0
 12 13  1  0  0  0  0
M  END
>  <BIO>
135.00

$$$$
Unnamed
  -MTS-   06200417533D 0   0.00000     0.00000     0

 13 13  0  0  0  0  0  0  0  0  1 V2000
   -0.0010    0.0000    0.0000 S   0  0  0  0  0  0  0  0  0  0  0  0
    1.8190    0.0000    0.0000 C   0  0  0  0  0  0  0  0  0  0  0  0
    2.3220   -1.4240    0.0000 C   0  0  0  0  0  0  0  0  0  0  0  0
    2.5550   -2.0840   -1.2120 C   0  0  0  0  0  0  0  0  0  0  0  0
    2.3030   -1.3720   -2.5200 C   0  0  0  0  0  0  0  0  0  0  0  0
    3.0210   -3.4040   -1.2120 C   0  0  0  0  0  0  0  0  0  0  0  0
    3.2730   -4.1160   -2.5200 C   0  0  0  0  0  0  0  0  0  0  0  0
    3.2550   -4.0640    0.0000 C   0  0  0  0  0  0  0  0  0  0  0  0
    3.7580   -5.4880    0.0000 C   0  0  0  0  0  0  0  0  0  0  0  0
    3.0210   -3.4040    1.2120 C   0  0  0  0  0  0  0  0  0  0  0  0
    3.2730   -4.1160    2.5200 C   0  0  0  0  0  0  0  0  0  0  0  0
    2.5550   -2.0840    1.2120 C   0  0  0  0  0  0  0  0  0  0  0  0
    2.3030   -1.3720    2.5200 C   0  0  0  0  0  0  0  0  0  0  0  0
  1  2  1  0  0  0  0
  2  3  1  0  0  0  0
  3  4  2  0  0  0  0
  4  5  1  0  0  0  0
  4  6  1  0  0  0  0
  6  7  1  0  0  0  0
  6  8  2  0  0  0  0
  8  9  1  0  0  0  0
  8 10  1  0  0  0  0
 10 11  1  0  0  0  0
 10 12  2  0  0  0  0
 12  3  1  0  0  0  0
 12 13  1  0  0  0  0
M  END
>  <BIO>
3400.00

$$$$
Unnamed
  -MTS-   06200417533D 0   0.00000     0.00000     0

  7  7  0  0  0  0  0  0  0  0  1 V2000
   -0.0010    0.0000    0.0000 S   0  0  0  0  0  0  0  0  0  0  0  0
    1.8190    0.0000    0.0000 C   0  0  0  0  0  0  0  0  0  0  0  0
    2.3220   -1.4240    0.0000 C   0  0  0  0  0  0  0  0  0  0  0  0
    2.6050   -2.2260   -1.1120 C   0  0  0  0  0  0  0  0  0  0  0  0
    3.0620   -3.5190   -0.8330 C   0  0  0  0  0  0  0  0  0  0  0  0
    3.1780   -3.8470    0.5230 C   0  0  0  0  0  0  0  0  0  0  0  0
    2.6740   -2.4200    1.3820 S   0  0  0  0  0  0  0  0  0  0  0  0
  1  2  1  0  0  0  0
  2  3  1  0  0  0  0
  3  4  2  0  0  0  0
  4  5  1  0  0  0  0
  5  6  2  0  0  0  0
  6  7  1  0  0  0  0
  7  3  1  0  0  0  0
M  END
>  <BIO>
1.38

$$$$
Unnamed
  -MTS-   06200417533D 0   0.00000     0.00000     0

  8  8  0  0  0  0  0  0  0  0  1 V2000
   -0.0010    0.0000    0.0000 S   0  0  0  0  0  0  0  0  0  0  0  0
    1.8190    0.0000    0.0000 C   0  0  0  0  0  0  0  0  0  0  0  0
    2.3220   -1.4240    0.0000 C   0  0  0  0  0  0  0  0  0  0  0  0
    2.5430   -2.0510    1.1640 N   0  0  0  0  0  0  0  0  0  0  0  0
    2.9890   -3.3130    1.2100 C   0  0  0  0  0  0  0  0  0  0  0  0
    3.2410   -4.0250    0.0310 C   0  0  0  0  0  0  0  0  0  0  0  0
    3.0190   -3.3990   -1.2010 C   0  0  0  0  0  0  0  0  0  0  0  0
    2.5530   -2.0780   -1.2160 C   0  0  0  0  0  0  0  0  0  0  0  0
  1  2  1  0  0  0  0
  2  3  1  0  0  0  0
  3  4  1  0  0  0  0
  4  5  2  0  0  0  0
  5  6  1  0  0  0  0
  6  7  2  0  0  0  0
  7  8  1  0  0  0  0
  8  3  2  0  0  0  0
M  END
>  <BIO>
62.40

$$$$
Unnamed
  -MTS-   06200417533D 0   0.00000     0.00000     0

  8  8  0  0  0  0  0  0  0  0  1 V2000
   -0.0010    0.0000    0.0000 S   0  0  0  0  0  0  0  0  0  0  0  0
    1.8190    0.0000    0.0000 C   0  0  0  0  0  0  0  0  0  0  0  0
    2.3220   -1.4240    0.0000 C   0  0  0  0  0  0  0  0  0  0  0  0
    2.5580   -2.0930    1.2070 C   0  0  0  0  0  0  0  0  0  0  0  0
    3.0050   -3.3570    1.2080 N   0  0  0  0  0  0  0  0  0  0  0  0
    3.2400   -4.0230    0.0690 C   0  0  0  0  0  0  0  0  0  0  0  0
    3.0250   -3.4130   -1.1720 C   0  0  0  0  0  0  0  0  0  0  0  0
    2.5580   -2.0930   -1.2070 C   0  0  0  0  0  0  0  0  0  0  0  0
  1  2  1  0  0  0  0
  2  3  1  0  0  0  0
  3  4  2  0  0  0  0
  4  5  1  0  0  0  0
  5  6  2  0  0  0  0
  6  7  1  0  0  0  0
  7  8  2  0  0  0  0
  8  3  1  0  0  0  0
M  END
>  <BIO>
49.70

$$$$
Unnamed
  -MTS-   06200417533D 0   0.00000     0.00000     0

  7  7  0  0  0  0  0  0  0  0  1 V2000
   -0.0340    0.1410    0.0000 S   0  0  0  0  0  0  0  0  0  0  0  0
    1.7870    0.0290    0.0000 C   0  0  0  0  0  0  0  0  0  0  0  0
    2.1700   -1.4600    0.0000 C   0  0  0  0  0  0  0  0  0  0  0  0
    2.3440   -2.2070    1.1620 C   0  0  0  0  0  0  0  0  0  0  0  0
    2.5570   -3.3810    0.5760 N   0  0  0  0  0  0  0  0  0  0  0  0
    2.4710   -3.0570   -0.7270 C   0  0  0  0  0  0  0  0  0  0  0  0
    2.3160   -2.0270   -0.8600 N   0  0  0  0  0  0  0  0  0  0  0  0
  1  2  1  0  0  0  0
  2  3  1  0  0  0  0
  3  4  2  0  0  0  0
  4  5  1  0  0  0  0
  5  6  2  0  0  0  0
  6  7  1  0  0  0  0
  7  3  1  0  0  0  0
M  END
>  <BIO>
317.00

$$$$
Unnamed
  -MTS-   06200417533D 0   0.00000     0.00000     0

  7  7  0  0  0  0  0  0  0  0  1 V2000
   -0.0010    0.0000    0.0000 S   0  0  0  0  0  0  0  0  0  0  0  0
    1.8190    0.0000    0.0000 C   0  0  0  0  0  0  0  0  0  0  0  0
    2.3220   -1.4240    0.0000 C   0  0  0  0  0  0  0  0  0  0  0  0
    2.6090   -2.2370    1.1030 C   0  0  0  0  0  0  0  0  0  0  0  0
    3.0450   -3.4720    0.8200 N   0  0  0  0  0  0  0  0  0  0  0  0
    3.1730   -3.8340   -0.4630 C   0  0  0  0  0  0  0  0  0  0  0  0
    2.6790   -2.4340   -1.3710 S   0  0  0  0  0  0  0  0  0  0  0  0
  1  2  1  0  0  0  0
  2  3  1  0  0  0  0
  3  4  2  0  0  0  0
  4  5  1  0  0  0  0
  5  6  2  0  0  0  0
  6  7  1  0  0  0  0
  7  3  1  0  0  0  0
M  END
>  <BIO>
39.50

$$$$
