Unnamed
  -MTS-   06200417543D 0   0.00000     0.00000     0

 11 12  0  0  0  0  0  0  0  0  1 V2000
    3.8880    0.0200    3.6370 C   0  0  0  0  0  0  0  0  0  0  0  0
    4.5880    0.0240    2.4250 C   0  0  0  0  0  0  0  0  0  0  0  0
    3.8880    0.0200    1.2120 C   0  0  0  0  0  0  0  0  0  0  0  0
    2.4880    0.0120    1.2120 C   0  0  0  0  0  0  0  0  0  0  0  0
    1.7880    0.0070    2.4250 C   0  0  0  0  0  0  0  0  0  0  0  0
    2.4880    0.0120    3.6370 C   0  0  0  0  0  0  0  0  0  0  0  0
    1.7880    0.0070    0.0000 C   0  0  0  0  0  0  0  0  0  0  0  0
    2.4880    0.0120   -1.2120 C   0  0  0  0  0  0  0  0  0  0  0  0
    3.8880    0.0200   -1.2120 C   0  0  0  0  0  0  0  0  0  0  0  0
    4.5880    0.0240    0.0000 C   0  0  0  0  0  0  0  0  0  0  0  0
    0.0180   -0.0030    0.0000 S   0  0  0  0  0  0  0  0  0  0  0  0
  1  2  2  0  0  0  0
  2  3  1  0  0  0  0
  3  4  2  0  0  0  0
  4  5  1  0  0  0  0
  5  6  2  0  0  0  0
  6  1  1  0  0  0  0
  4  7  1  0  0  0  0
  7  8  2  0  0  0  0
  8  9  1  0  0  0  0
  9 10  2  0  0  0  0
 10  3  1  0  0  0  0
  7 11  1  0  0  0  0
M  END
>  <BIO>
3.1000

$$$$
Unnamed
  -MTS-   06200417543D 0   0.00000     0.00000     0

 12 13  0  0  0  0  0  0  0  0  1 V2000
    3.8880    0.0200    3.6370 C   0  0  0  0  0  0  0  0  0  0  0  0
    4.5880    0.0240    2.4250 C   0  0  0  0  0  0  0  0  0  0  0  0
    3.8880    0.0200    1.2120 C   0  0  0  0  0  0  0  0  0  0  0  0
    2.4880    0.0110    1.2120 C   0  0  0  0  0  0  0  0  0  0  0  0
    1.7880    0.0070    2.4250 C   0  0  0  0  0  0  0  0  0  0  0  0
    2.4880    0.0110    3.6370 C   0  0  0  0  0  0  0  0  0  0  0  0
    1.7880    0.0070    0.0000 C   0  0  0  0  0  0  0  0  0  0  0  0
    2.4880    0.0110   -1.2120 C   0  0  0  0  0  0  0  0  0  0  0  0
    3.8880    0.0200   -1.2120 C   0  0  0  0  0  0  0  0  0  0  0  0
    4.5880    0.0240    0.0000 C   0  0  0  0  0  0  0  0  0  0  0  0
    5.9900    0.0320    0.0000 N   0  0  0  0  0  0  0  0  0  0  0  0
    0.0180   -0.0030    0.0000 S   0  0  0  0  0  0  0  0  0  0  0  0
  1  2  2  0  0  0  0
  2  3  1  0  0  0  0
  3  4  2  0  0  0  0
  4  5  1  0  0  0  0
  5  6  2  0  0  0  0
  6  1  1  0  0  0  0
  4  7  1  0  0  0  0
  7  8  2  0  0  0  0
  8  9  1  0  0  0  0
  9 10  2  0  0  0  0
 10  3  1  0  0  0  0
 10 11  1  0  0  0  0
  7 12  1  0  0  0  0
M  END
>  <BIO>
3.5000

$$$$
Unnamed
  -MTS-   06200417543D 0   0.00000     0.00000     0

 15 16  0  0  0  0  0  0  0  0  1 V2000
    3.8880    0.0200    3.6370 C   0  0  0  0  0  0  0  0  0  0  0  0
    4.5880    0.0240    2.4250 C   0  0  0  0  0  0  0  0  0  0  0  0
    3.8880    0.0200    1.2120 C   0  0  0  0  0  0  0  0  0  0  0  0
    2.4880    0.0120    1.2120 C   0  0  0  0  0  0  0  0  0  0  0  0
    1.7880    0.0070    2.4250 C   0  0  0  0  0  0  0  0  0  0  0  0
    2.4880    0.0110    3.6370 C   0  0  0  0  0  0  0  0  0  0  0  0
    1.7880    0.0070    0.0000 C   0  0  0  0  0  0  0  0  0  0  0  0
    2.4880    0.0120   -1.2120 C   0  0  0  0  0  0  0  0  0  0  0  0
    3.8880    0.0200   -1.2120 C   0  0  0  0  0  0  0  0  0  0  0  0
    4.5880    0.0240    0.0000 C   0  0  0  0  0  0  0  0  0  0  0  0
    6.0030    0.0330    0.0000 N   0  0  0  0  0  0  0  0  0  0  0  0
    6.6750   -1.1150    0.0000 C   0  0  0  0  0  0  0  0  0  0  0  0
    6.0660   -2.1840    0.0000 O   0  0  0  0  0  0  0  0  0  0  0  0
    8.1850   -1.1060    0.0000 C   0  0  0  0  0  0  0  0  0  0  0  0
    0.0180   -0.0030    0.0000 S   0  0  0  0  0  0  0  0  0  0  0  0
  1  2  2  0  0  0  0
  2  3  1  0  0  0  0
  3  4  2  0  0  0  0
  4  5  1  0  0  0  0
  5  6  2  0  0  0  0
  6  1  1  0  0  0  0
  4  7  1  0  0  0  0
  7  8  2  0  0  0  0
  8  9  1  0  0  0  0
  9 10  2  0  0  0  0
 10  3  1  0  0  0  0
 10 11  1  0  0  0  0
 11 12  1  0  0  0  0
 12 13  2  0  0  0  0
 12 14  1  0  0  0  0
  7 15  1  0  0  0  0
M  END
>  <BIO>
3.4000

$$$$
Unnamed
  -MTS-   06200417543D 0   0.00000     0.00000     0

 12 13  0  0  0  0  0  0  0  0  1 V2000
    3.8880    0.0200    3.6370 C   0  0  0  0  0  0  0  0  0  0  0  0
    4.5880    0.0240    2.4250 C   0  0  0  0  0  0  0  0  0  0  0  0
    5.9900    0.0320    2.4250 N   0  0  0  0  0  0  0  0  0  0  0  0
    3.8880    0.0200    1.2120 C   0  0  0  0  0  0  0  0  0  0  0  0
    2.4880    0.0110    1.2120 C   0  0  0  0  0  0  0  0  0  0  0  0
    1.7880    0.0070    2.4250 C   0  0  0  0  0  0  0  0  0  0  0  0
    2.4880    0.0110    3.6370 C   0  0  0  0  0  0  0  0  0  0  0  0
    1.7880    0.0070    0.0000 C   0  0  0  0  0  0  0  0  0  0  0  0
    2.4880    0.0110   -1.2120 C   0  0  0  0  0  0  0  0  0  0  0  0
    3.8880    0.0200   -1.2120 C   0  0  0  0  0  0  0  0  0  0  0  0
    4.5880    0.0240    0.0000 C   0  0  0  0  0  0  0  0  0  0  0  0
    0.0180   -0.0030    0.0000 S   0  0  0  0  0  0  0  0  0  0  0  0
  1  2  2  0  0  0  0
  2  3  1  0  0  0  0
  2  4  1  0  0  0  0
  4  5  2  0  0  0  0
  5  6  1  0  0  0  0
  6  7  2  0  0  0  0
  7  1  1  0  0  0  0
  5  8  1  0  0  0  0
  8  9  2  0  0  0  0
  9 10  1  0  0  0  0
 10 11  2  0  0  0  0
 11  4  1  0  0  0  0
  8 12  1  0  0  0  0
M  END
>  <BIO>
0.1500

$$$$
Unnamed
  -MTS-   06200417543D 0   0.00000     0.00000     0

 14 15  0  0  0  0  0  0  0  0  1 V2000
    3.8880    0.0200    3.6370 C   0  0  0  0  0  0  0  0  0  0  0  0
    4.5880    0.0240    2.4250 C   0  0  0  0  0  0  0  0  0  0  0  0
    6.0030    0.0330    2.4250 N   0  0  0  0  0  0  0  0  0  0  0  0
    6.4850    1.4210    2.4250 C   0  0  0  0  0  0  0  0  0  0  0  0
    6.4970   -0.6570    3.6250 C   0  0  0  0  0  0  0  0  0  0  0  0
    3.8880    0.0200    1.2130 C   0  0  0  0  0  0  0  0  0  0  0  0
    2.4880    0.0120    1.2130 C   0  0  0  0  0  0  0  0  0  0  0  0
    1.7880    0.0070    2.4250 C   0  0  0  0  0  0  0  0  0  0  0  0
    2.4880    0.0120    3.6370 C   0  0  0  0  0  0  0  0  0  0  0  0
    1.7880    0.0070    0.0000 C   0  0  0  0  0  0  0  0  0  0  0  0
    2.4880    0.0110   -1.2120 C   0  0  0  0  0  0  0  0  0  0  0  0
    3.8880    0.0200   -1.2120 C   0  0  0  0  0  0  0  0  0  0  0  0
    4.5880    0.0240    0.0000 C   0  0  0  0  0  0  0  0  0  0  0  0
    0.0180   -0.0030    0.0000 S   0  0  0  0  0  0  0  0  0  0  0  0
  1  2  2  0  0  0  0
  2  3  1  0  0  0  0
  3  4  1  0  0  0  0
  3  5  1  0  0  0  0
  2  6  1  0  0  0  0
  6  7  2  0  0  0  0
  7  8  1  0  0  0  0
  8  9  2  0  0  0  0
  9  1  1  0  0  0  0
  7 10  1  0  0  0  0
 10 11  2  0  0  0  0
 11 12  1  0  0  0  0
 12 13  2  0  0  0  0
 13  6  1  0  0  0  0
 10 14  1  0  0  0  0
M  END
>  <BIO>
0.0150

$$$$
Unnamed
  -MTS-   06200417543D 0   0.00000     0.00000     0

 15 16  0  0  0  0  0  0  0  0  1 V2000
    3.8880    0.0200    3.6370 C   0  0  0  0  0  0  0  0  0  0  0  0
    4.5880    0.0240    2.4250 C   0  0  0  0  0  0  0  0  0  0  0  0
    6.0030    0.0330    2.4250 N   0  0  0  0  0  0  0  0  0  0  0  0
    6.6610    1.1880    2.4250 C   0  0  0  0  0  0  0  0  0  0  0  0
    6.0400    2.2500    2.4250 O   0  0  0  0  0  0  0  0  0  0  0  0
    8.1710    1.1970    2.4250 C   0  0  0  0  0  0  0  0  0  0  0  0
    3.8880    0.0200    1.2130 C   0  0  0  0  0  0  0  0  0  0  0  0
    2.4880    0.0120    1.2130 C   0  0  0  0  0  0  0  0  0  0  0  0
    1.7880    0.0070    2.4250 C   0  0  0  0  0  0  0  0  0  0  0  0
    2.4880    0.0120    3.6370 C   0  0  0  0  0  0  0  0  0  0  0  0
    1.7880    0.0070    0.0000 C   0  0  0  0  0  0  0  0  0  0  0  0
    2.4880    0.0110   -1.2120 C   0  0  0  0  0  0  0  0  0  0  0  0
    3.8880    0.0200   -1.2120 C   0  0  0  0  0  0  0  0  0  0  0  0
    4.5880    0.0240    0.0000 C   0  0  0  0  0  0  0  0  0  0  0  0
    0.0180   -0.0030    0.0000 S   0  0  0  0  0  0  0  0  0  0  0  0
  1  2  2  0  0  0  0
  2  3  1  0  0  0  0
  3  4  1  0  0  0  0
  4  5  2  0  0  0  0
  4  6  1  0  0  0  0
  2  7  1  0  0  0  0
  7  8  2  0  0  0  0
  8  9  1  0  0  0  0
  9 10  2  0  0  0  0
 10  1  1  0  0  0  0
  8 11  1  0  0  0  0
 11 12  2  0  0  0  0
 12 13  1  0  0  0  0
 13 14  2  0  0  0  0
 14  7  1  0  0  0  0
 11 15  1  0  0  0  0
M  END
>  <BIO>
0.0870

$$$$
Unnamed
  -MTS-   06200417543D 0   0.00000     0.00000     0

 12 13  0  0  0  0  0  0  0  0  1 V2000
    3.8880    0.0200    3.6370 C   0  0  0  0  0  0  0  0  0  0  0  0
    4.5880    0.0240    2.4250 C   0  0  0  0  0  0  0  0  0  0  0  0
    5.9580    0.0320    2.4250 O   0  0  0  0  0  0  0  0  0  0  0  0
    3.8880    0.0200    1.2120 C   0  0  0  0  0  0  0  0  0  0  0  0
    2.4880    0.0120    1.2120 C   0  0  0  0  0  0  0  0  0  0  0  0
    1.7880    0.0070    2.4250 C   0  0  0  0  0  0  0  0  0  0  0  0
    2.4880    0.0120    3.6370 C   0  0  0  0  0  0  0  0  0  0  0  0
    1.7880    0.0070    0.0000 C   0  0  0  0  0  0  0  0  0  0  0  0
    2.4880    0.0120   -1.2120 C   0  0  0  0  0  0  0  0  0  0  0  0
    3.8880    0.0200   -1.2120 C   0  0  0  0  0  0  0  0  0  0  0  0
    4.5880    0.0240    0.0000 C   0  0  0  0  0  0  0  0  0  0  0  0
    0.0180   -0.0030    0.0000 S   0  0  0  0  0  0  0  0  0  0  0  0
  1  2  2  0  0  0  0
  2  3  1  0  0  0  0
  2  4  1  0  0  0  0
  4  5  2  0  0  0  0
  5  6  1  0  0  0  0
  6  7  2  0  0  0  0
  7  1  1  0  0  0  0
  5  8  1  0  0  0  0
  8  9  2  0  0  0  0
  9 10  1  0  0  0  0
 10 11  2  0  0  0  0
 11  4  1  0  0  0  0
  8 12  1  0  0  0  0
M  END
>  <BIO>
0.0680

$$$$
Unnamed
  -MTS-   06200417543D 0   0.00000     0.00000     0

 16 17  0  0  0  0  0  0  0  0  1 V2000
    3.8880    0.0200    3.6370 C   0  0  0  0  0  0  0  0  0  0  0  0
    4.5880    0.0240    2.4250 C   0  0  0  0  0  0  0  0  0  0  0  0
    6.0030    0.0330    2.4250 N   0  0  0  0  0  0  0  0  0  0  0  0
    6.4850    1.4210    2.4250 C   0  0  0  0  0  0  0  0  0  0  0  0
    8.0110    1.4300    2.4250 C   0  0  0  0  0  0  0  0  0  0  0  0
    5.9720    2.1380    1.1790 C   0  0  0  0  0  0  0  0  0  0  0  0
    6.4970   -0.6570    3.6250 C   0  0  0  0  0  0  0  0  0  0  0  0
    3.8880    0.0200    1.2120 C   0  0  0  0  0  0  0  0  0  0  0  0
    2.4880    0.0120    1.2120 C   0  0  0  0  0  0  0  0  0  0  0  0
    1.7880    0.0070    2.4250 C   0  0  0  0  0  0  0  0  0  0  0  0
    2.4880    0.0120    3.6370 C   0  0  0  0  0  0  0  0  0  0  0  0
    1.7880    0.0070    0.0000 C   0  0  0  0  0  0  0  0  0  0  0  0
    2.4880    0.0110   -1.2120 C   0  0  0  0  0  0  0  0  0  0  0  0
    3.8880    0.0200   -1.2120 C   0  0  0  0  0  0  0  0  0  0  0  0
    4.5880    0.0240    0.0000 C   0  0  0  0  0  0  0  0  0  0  0  0
    0.0180   -0.0030    0.0000 S   0  0  0  0  0  0  0  0  0  0  0  0
  1  2  2  0  0  0  0
  2  3  1  0  0  0  0
  3  4  1  0  0  0  0
  4  5  1  0  0  0  0
  4  6  1  0  0  0  0
  3  7  1  0  0  0  0
  2  8  1  0  0  0  0
  8  9  2  0  0  0  0
  9 10  1  0  0  0  0
 10 11  2  0  0  0  0
 11  1  1  0  0  0  0
  9 12  1  0  0  0  0
 12 13  2  0  0  0  0
 13 14  1  0  0  0  0
 14 15  2  0  0  0  0
 15  8  1  0  0  0  0
 12 16  1  0  0  0  0
M  END
>  <BIO>
0.0040

$$$$
Unnamed
  -MTS-   06200417543D 0   0.00000     0.00000     0

 15 16  0  0  0  0  0  0  0  0  1 V2000
    3.8880    0.0200    3.6370 C   0  0  0  0  0  0  0  0  0  0  0  0
    4.5880    0.0240    2.4250 C   0  0  0  0  0  0  0  0  0  0  0  0
    6.0030    0.0320    2.4250 N   0  0  0  0  0  0  0  0  0  0  0  0
    6.4850    1.4210    2.4250 C   0  0  0  0  0  0  0  0  0  0  0  0
    8.0110    1.4300    2.4250 C   0  0  0  0  0  0  0  0  0  0  0  0
    5.9720    2.1380    1.1790 C   0  0  0  0  0  0  0  0  0  0  0  0
    3.8880    0.0200    1.2120 C   0  0  0  0  0  0  0  0  0  0  0  0
    2.4880    0.0120    1.2120 C   0  0  0  0  0  0  0  0  0  0  0  0
    1.7880    0.0070    2.4250 C   0  0  0  0  0  0  0  0  0  0  0  0
    2.4880    0.0120    3.6370 C   0  0  0  0  0  0  0  0  0  0  0  0
    1.7880    0.0070    0.0000 C   0  0  0  0  0  0  0  0  0  0  0  0
    2.4880    0.0110   -1.2120 C   0  0  0  0  0  0  0  0  0  0  0  0
    3.8880    0.0200   -1.2130 C   0  0  0  0  0  0  0  0  0  0  0  0
    4.5880    0.0240    0.0000 C   0  0  0  0  0  0  0  0  0  0  0  0
    0.0180   -0.0030    0.0000 S   0  0  0  0  0  0  0  0  0  0  0  0
  1  2  2  0  0  0  0
  2  3  1  0  0  0  0
  3  4  1  0  0  0  0
  4  5  1  0  0  0  0
  4  6  1  0  0  0  0
  2  7  1  0  0  0  0
  7  8  2  0  0  0  0
  8  9  1  0  0  0  0
  9 10  2  0  0  0  0
 10  1  1  0  0  0  0
  8 11  1  0  0  0  0
 11 12  2  0  0  0  0
 12 13  1  0  0  0  0
 13 14  2  0  0  0  0
 14  7  1  0  0  0  0
 11 15  1  0  0  0  0
M  END
>  <BIO>
0.0050

$$$$
Unnamed
  -MTS-   06200417543D 0   0.00000     0.00000     0

 12 13  0  0  0  0  0  0  0  0  1 V2000
    3.8880    0.0200    3.6370 C   0  0  0  0  0  0  0  0  0  0  0  0
    4.5890    0.0240    4.8510 N   0  0  0  0  0  0  0  0  0  0  0  0
    4.5880    0.0240    2.4250 C   0  0  0  0  0  0  0  0  0  0  0  0
    3.8880    0.0200    1.2120 C   0  0  0  0  0  0  0  0  0  0  0  0
    2.4880    0.0120    1.2120 C   0  0  0  0  0  0  0  0  0  0  0  0
    1.7880    0.0070    2.4250 C   0  0  0  0  0  0  0  0  0  0  0  0
    2.4880    0.0110    3.6370 C   0  0  0  0  0  0  0  0  0  0  0  0
    1.7880    0.0070    0.0000 C   0  0  0  0  0  0  0  0  0  0  0  0
    2.4880    0.0120   -1.2120 C   0  0  0  0  0  0  0  0  0  0  0  0
    3.8880    0.0200   -1.2120 C   0  0  0  0  0  0  0  0  0  0  0  0
    4.5880    0.0240    0.0000 C   0  0  0  0  0  0  0  0  0  0  0  0
    0.0180   -0.0030    0.0000 S   0  0  0  0  0  0  0  0  0  0  0  0
  1  2  1  0  0  0  0
  1  3  2  0  0  0  0
  3  4  1  0  0  0  0
  4  5  2  0  0  0  0
  5  6  1  0  0  0  0
  6  7  2  0  0  0  0
  7  1  1  0  0  0  0
  5  8  1  0  0  0  0
  8  9  2  0  0  0  0
  9 10  1  0  0  0  0
 10 11  2  0  0  0  0
 11  4  1  0  0  0  0
  8 12  1  0  0  0  0
M  END
>  <BIO>
2.4000

$$$$
Unnamed
  -MTS-   06200417543D 0   0.00000     0.00000     0

 14 15  0  0  0  0  0  0  0  0  1 V2000
    3.8880    0.0200    3.6370 C   0  0  0  0  0  0  0  0  0  0  0  0
    4.5950    0.0240    4.8630 N   0  0  0  0  0  0  0  0  0  0  0  0
    4.8490   -1.3600    5.2870 C   0  0  0  0  0  0  0  0  0  0  0  0
    5.8760    0.7250    4.6870 C   0  0  0  0  0  0  0  0  0  0  0  0
    4.5880    0.0240    2.4250 C   0  0  0  0  0  0  0  0  0  0  0  0
    3.8880    0.0200    1.2120 C   0  0  0  0  0  0  0  0  0  0  0  0
    2.4880    0.0110    1.2120 C   0  0  0  0  0  0  0  0  0  0  0  0
    1.7880    0.0070    2.4250 C   0  0  0  0  0  0  0  0  0  0  0  0
    2.4880    0.0110    3.6370 C   0  0  0  0  0  0  0  0  0  0  0  0
    1.7880    0.0070    0.0000 C   0  0  0  0  0  0  0  0  0  0  0  0
    2.4880    0.0120   -1.2120 C   0  0  0  0  0  0  0  0  0  0  0  0
    3.8880    0.0200   -1.2120 C   0  0  0  0  0  0  0  0  0  0  0  0
    4.5880    0.0240    0.0000 C   0  0  0  0  0  0  0  0  0  0  0  0
    0.0180   -0.0030    0.0000 S   0  0  0  0  0  0  0  0  0  0  0  0
  1  2  1  0  0  0  0
  2  3  1  0  0  0  0
  2  4  1  0  0  0  0
  1  5  2  0  0  0  0
  5  6  1  0  0  0  0
  6  7  2  0  0  0  0
  7  8  1  0  0  0  0
  8  9  2  0  0  0  0
  9  1  1  0  0  0  0
  7 10  1  0  0  0  0
 10 11  2  0  0  0  0
 11 12  1  0  0  0  0
 12 13  2  0  0  0  0
 13  6  1  0  0  0  0
 10 14  1  0  0  0  0
M  END
>  <BIO>
0.8400

$$$$
Unnamed
  -MTS-   06200417543D 0   0.00000     0.00000     0

 15 16  0  0  0  0  0  0  0  0  1 V2000
    3.8880    0.0200    3.6370 C   0  0  0  0  0  0  0  0  0  0  0  0
    4.5960    0.0240    4.8630 N   0  0  0  0  0  0  0  0  0  0  0  0
    4.9350   -1.1250    5.4390 C   0  0  0  0  0  0  0  0  0  0  0  0
    4.6340   -2.1930    4.9060 O   0  0  0  0  0  0  0  0  0  0  0  0
    5.6900   -1.1210    6.7460 C   0  0  0  0  0  0  0  0  0  0  0  0
    4.5880    0.0240    2.4250 C   0  0  0  0  0  0  0  0  0  0  0  0
    3.8880    0.0200    1.2120 C   0  0  0  0  0  0  0  0  0  0  0  0
    2.4880    0.0120    1.2120 C   0  0  0  0  0  0  0  0  0  0  0  0
    1.7880    0.0070    2.4250 C   0  0  0  0  0  0  0  0  0  0  0  0
    2.4880    0.0120    3.6370 C   0  0  0  0  0  0  0  0  0  0  0  0
    1.7880    0.0070    0.0000 C   0  0  0  0  0  0  0  0  0  0  0  0
    2.4880    0.0120   -1.2120 C   0  0  0  0  0  0  0  0  0  0  0  0
    3.8880    0.0200   -1.2120 C   0  0  0  0  0  0  0  0  0  0  0  0
    4.5880    0.0240    0.0000 C   0  0  0  0  0  0  0  0  0  0  0  0
    0.0180   -0.0030    0.0000 S   0  0  0  0  0  0  0  0  0  0  0  0
  1  2  1  0  0  0  0
  2  3  1  0  0  0  0
  3  4  2  0  0  0  0
  3  5  1  0  0  0  0
  1  6  2  0  0  0  0
  6  7  1  0  0  0  0
  7  8  2  0  0  0  0
  8  9  1  0  0  0  0
  9 10  2  0  0  0  0
 10  1  1  0  0  0  0
  8 11  1  0  0  0  0
 11 12  2  0  0  0  0
 12 13  1  0  0  0  0
 13 14  2  0  0  0  0
 14  7  1  0  0  0  0
 11 15  1  0  0  0  0
M  END
>  <BIO>
1.3000

$$$$
Unnamed
  -MTS-   06200417543D 0   0.00000     0.00000     0

 12 13  0  0  0  0  0  0  0  0  1 V2000
    3.8880    0.0200    3.6370 C   0  0  0  0  0  0  0  0  0  0  0  0
    4.5880    0.0240    2.4250 C   0  0  0  0  0  0  0  0  0  0  0  0
    3.8880    0.0200    1.2120 C   0  0  0  0  0  0  0  0  0  0  0  0
    2.4880    0.0120    1.2120 C   0  0  0  0  0  0  0  0  0  0  0  0
    1.7880    0.0070    2.4250 C   0  0  0  0  0  0  0  0  0  0  0  0
    2.4880    0.0120    3.6370 C   0  0  0  0  0  0  0  0  0  0  0  0
    1.7870    0.0070    4.8510 N   0  0  0  0  0  0  0  0  0  0  0  0
    1.7880    0.0070    0.0000 C   0  0  0  0  0  0  0  0  0  0  0  0
    2.4880    0.0110   -1.2120 C   0  0  0  0  0  0  0  0  0  0  0  0
    3.8880    0.0200   -1.2130 C   0  0  0  0  0  0  0  0  0  0  0  0
    4.5880    0.0240    0.0000 C   0  0  0  0  0  0  0  0  0  0  0  0
    0.0180   -0.0030    0.0000 S   0  0  0  0  0  0  0  0  0  0  0  0
  1  2  2  0  0  0  0
  2  3  1  0  0  0  0
  3  4  2  0  0  0  0
  4  5  1  0  0  0  0
  5  6  2  0  0  0  0
  6  1  1  0  0  0  0
  6  7  1  0  0  0  0
  4  8  1  0  0  0  0
  8  9  2  0  0  0  0
  9 10  1  0  0  0  0
 10 11  2  0  0  0  0
 11  3  1  0  0  0  0
  8 12  1  0  0  0  0
M  END
>  <BIO>
1.4500

$$$$
Unnamed
  -MTS-   06200417543D 0   0.00000     0.00000     0

 14 15  0  0  0  0  0  0  0  0  1 V2000
    3.8880    0.0200    3.6370 C   0  0  0  0  0  0  0  0  0  0  0  0
    4.5880    0.0240    2.4250 C   0  0  0  0  0  0  0  0  0  0  0  0
    3.8880    0.0200    1.2120 C   0  0  0  0  0  0  0  0  0  0  0  0
    2.4880    0.0120    1.2120 C   0  0  0  0  0  0  0  0  0  0  0  0
    1.7880    0.0070    2.4250 C   0  0  0  0  0  0  0  0  0  0  0  0
    2.4880    0.0120    3.6370 C   0  0  0  0  0  0  0  0  0  0  0  0
    1.7810    0.0070    4.8630 N   0  0  0  0  0  0  0  0  0  0  0  0
    1.5440   -1.3800    5.2870 C   0  0  0  0  0  0  0  0  0  0  0  0
    2.5710    0.7050    5.8870 C   0  0  0  0  0  0  0  0  0  0  0  0
    1.7880    0.0070    0.0000 C   0  0  0  0  0  0  0  0  0  0  0  0
    2.4880    0.0120   -1.2120 C   0  0  0  0  0  0  0  0  0  0  0  0
    3.8880    0.0200   -1.2120 C   0  0  0  0  0  0  0  0  0  0  0  0
    4.5880    0.0240    0.0000 C   0  0  0  0  0  0  0  0  0  0  0  0
    0.0180   -0.0030    0.0000 S   0  0  0  0  0  0  0  0  0  0  0  0
  1  2  2  0  0  0  0
  2  3  1  0  0  0  0
  3  4  2  0  0  0  0
  4  5  1  0  0  0  0
  5  6  2  0  0  0  0
  6  1  1  0  0  0  0
  6  7  1  0  0  0  0
  7  8  1  0  0  0  0
  7  9  1  0  0  0  0
  4 10  1  0  0  0  0
 10 11  2  0  0  0  0
 11 12  1  0  0  0  0
 12 13  2  0  0  0  0
 13  3  1  0  0  0  0
 10 14  1  0  0  0  0
M  END
>  <BIO>
5.6000

$$$$
Unnamed
  -MTS-   06200417543D 0   0.00000     0.00000     0

 15 16  0  0  0  0  0  0  0  0  1 V2000
    3.8880    0.0200    3.6370 C   0  0  0  0  0  0  0  0  0  0  0  0
    4.5880    0.0240    2.4250 C   0  0  0  0  0  0  0  0  0  0  0  0
    3.8880    0.0200    1.2130 C   0  0  0  0  0  0  0  0  0  0  0  0
    2.4880    0.0110    1.2130 C   0  0  0  0  0  0  0  0  0  0  0  0
    1.7880    0.0070    2.4250 C   0  0  0  0  0  0  0  0  0  0  0  0
    2.4880    0.0120    3.6370 C   0  0  0  0  0  0  0  0  0  0  0  0
    1.7800    0.0070    4.8630 N   0  0  0  0  0  0  0  0  0  0  0  0
    1.4550   -1.1460    5.4390 C   0  0  0  0  0  0  0  0  0  0  0  0
    1.7690   -2.2100    4.9060 O   0  0  0  0  0  0  0  0  0  0  0  0
    0.7000   -1.1510    6.7460 C   0  0  0  0  0  0  0  0  0  0  0  0
    1.7880    0.0070    0.0000 C   0  0  0  0  0  0  0  0  0  0  0  0
    2.4880    0.0110   -1.2120 C   0  0  0  0  0  0  0  0  0  0  0  0
    3.8880    0.0200   -1.2120 C   0  0  0  0  0  0  0  0  0  0  0  0
    4.5880    0.0240    0.0000 C   0  0  0  0  0  0  0  0  0  0  0  0
    0.0180   -0.0030    0.0000 S   0  0  0  0  0  0  0  0  0  0  0  0
  1  2  2  0  0  0  0
  2  3  1  0  0  0  0
  3  4  2  0  0  0  0
  4  5  1  0  0  0  0
  5  6  2  0  0  0  0
  6  1  1  0  0  0  0
  6  7  1  0  0  0  0
  7  8  1  0  0  0  0
  8  9  2  0  0  0  0
  8 10  1  0  0  0  0
  4 11  1  0  0  0  0
 11 12  2  0  0  0  0
 12 13  1  0  0  0  0
 13 14  2  0  0  0  0
 14  3  1  0  0  0  0
 11 15  1  0  0  0  0
M  END
>  <BIO>
0.8700

$$$$
Unnamed
  -MTS-   06200417543D 0   0.00000     0.00000     0

  8  8  0  0  0  0  0  0  0  0  1 V2000
    3.8880    0.0200    1.2130 C   0  0  0  0  0  0  0  0  0  0  0  0
    2.4880    0.0110    1.2130 C   0  0  0  0  0  0  0  0  0  0  0  0
    1.7880    0.0070    0.0000 C   0  0  0  0  0  0  0  0  0  0  0  0
    2.4880    0.0120   -1.2120 C   0  0  0  0  0  0  0  0  0  0  0  0
    3.8880    0.0200   -1.2120 C   0  0  0  0  0  0  0  0  0  0  0  0
    4.5880    0.0240    0.0000 C   0  0  0  0  0  0  0  0  0  0  0  0
    5.9900    0.0330    0.0000 N   0  0  0  0  0  0  0  0  0  0  0  0
    0.0180   -0.0030    0.0000 S   0  0  0  0  0  0  0  0  0  0  0  0
  1  2  2  0  0  0  0
  2  3  1  0  0  0  0
  3  4  2  0  0  0  0
  4  5  1  0  0  0  0
  5  6  2  0  0  0  0
  6  1  1  0  0  0  0
  6  7  1  0  0  0  0
  3  8  1  0  0  0  0
M  END
>  <BIO>
0.8000

$$$$
Unnamed
  -MTS-   06200417543D 0   0.00000     0.00000     0

 10 10  0  0  0  0  0  0  0  0  1 V2000
    3.8880    0.0200    1.2130 C   0  0  0  0  0  0  0  0  0  0  0  0
    2.4880    0.0110    1.2130 C   0  0  0  0  0  0  0  0  0  0  0  0
    1.7880    0.0070    0.0000 C   0  0  0  0  0  0  0  0  0  0  0  0
    2.4880    0.0120   -1.2120 C   0  0  0  0  0  0  0  0  0  0  0  0
    3.8880    0.0200   -1.2120 C   0  0  0  0  0  0  0  0  0  0  0  0
    4.5880    0.0240    0.0000 C   0  0  0  0  0  0  0  0  0  0  0  0
    6.0030    0.0330    0.0000 N   0  0  0  0  0  0  0  0  0  0  0  0
    6.5010   -1.3500    0.0000 C   0  0  0  0  0  0  0  0  0  0  0  0
    8.0270   -1.3410    0.0000 C   0  0  0  0  0  0  0  0  0  0  0  0
    0.0180   -0.0030    0.0000 S   0  0  0  0  0  0  0  0  0  0  0  0
  1  2  2  0  0  0  0
  2  3  1  0  0  0  0
  3  4  2  0  0  0  0
  4  5  1  0  0  0  0
  5  6  2  0  0  0  0
  6  1  1  0  0  0  0
  6  7  1  0  0  0  0
  7  8  1  0  0  0  0
  8  9  1  0  0  0  0
  3 10  1  0  0  0  0
M  END
>  <BIO>
5.0000

$$$$
Unnamed
  -MTS-   06200417543D 0   0.00000     0.00000     0

 10 10  0  0  0  0  0  0  0  0  1 V2000
    3.8880    0.0200    1.2120 C   0  0  0  0  0  0  0  0  0  0  0  0
    2.4880    0.0110    1.2120 C   0  0  0  0  0  0  0  0  0  0  0  0
    1.7880    0.0070    0.0000 C   0  0  0  0  0  0  0  0  0  0  0  0
    2.4880    0.0110   -1.2130 C   0  0  0  0  0  0  0  0  0  0  0  0
    3.8880    0.0200   -1.2130 C   0  0  0  0  0  0  0  0  0  0  0  0
    4.5880    0.0240    0.0000 C   0  0  0  0  0  0  0  0  0  0  0  0
    6.0030    0.0320    0.0000 N   0  0  0  0  0  0  0  0  0  0  0  0
    6.5010   -1.3510    0.0000 C   0  0  0  0  0  0  0  0  0  0  0  0
    6.4890    0.7280   -1.2000 C   0  0  0  0  0  0  0  0  0  0  0  0
    0.0180   -0.0030    0.0000 S   0  0  0  0  0  0  0  0  0  0  0  0
  1  2  2  0  0  0  0
  2  3  1  0  0  0  0
  3  4  2  0  0  0  0
  4  5  1  0  0  0  0
  5  6  2  0  0  0  0
  6  1  1  0  0  0  0
  6  7  1  0  0  0  0
  7  8  1  0  0  0  0
  7  9  1  0  0  0  0
  3 10  1  0  0  0  0
M  END
>  <BIO>
84.0000

$$$$
Unnamed
  -MTS-   06200417543D 0   0.00000     0.00000     0

  8  8  0  0  0  0  0  0  0  0  1 V2000
    3.8880    0.0200    1.2130 C   0  0  0  0  0  0  0  0  0  0  0  0
    2.4880    0.0120    1.2120 C   0  0  0  0  0  0  0  0  0  0  0  0
    1.7880    0.0070    0.0000 C   0  0  0  0  0  0  0  0  0  0  0  0
    2.4880    0.0120   -1.2120 C   0  0  0  0  0  0  0  0  0  0  0  0
    3.8880    0.0200   -1.2120 C   0  0  0  0  0  0  0  0  0  0  0  0
    4.5880    0.0240    0.0000 C   0  0  0  0  0  0  0  0  0  0  0  0
    5.9580    0.0320    0.0000 O   0  0  0  0  0  0  0  0  0  0  0  0
    0.0180   -0.0030    0.0000 S   0  0  0  0  0  0  0  0  0  0  0  0
  1  2  2  0  0  0  0
  2  3  1  0  0  0  0
  3  4  2  0  0  0  0
  4  5  1  0  0  0  0
  5  6  2  0  0  0  0
  6  1  1  0  0  0  0
  6  7  1  0  0  0  0
  3  8  1  0  0  0  0
M  END
>  <BIO>
9.0000

$$$$
Unnamed
  -MTS-   06200417543D 0   0.00000     0.00000     0

  8  8  0  0  0  0  0  0  0  0  1 V2000
    3.8880    0.0200   -1.2120 C   0  0  0  0  0  0  0  0  0  0  0  0
    2.4880    0.0120   -1.2120 C   0  0  0  0  0  0  0  0  0  0  0  0
    1.7880    0.0070    0.0000 C   0  0  0  0  0  0  0  0  0  0  0  0
    2.4880    0.0120    1.2120 C   0  0  0  0  0  0  0  0  0  0  0  0
    3.8880    0.0200    1.2120 C   0  0  0  0  0  0  0  0  0  0  0  0
    4.5890    0.0240    2.4270 N   0  0  0  0  0  0  0  0  0  0  0  0
    4.5880    0.0240    0.0000 C   0  0  0  0  0  0  0  0  0  0  0  0
    0.0180   -0.0030    0.0000 S   0  0  0  0  0  0  0  0  0  0  0  0
  1  2  2  0  0  0  0
  2  3  1  0  0  0  0
  3  4  2  0  0  0  0
  4  5  1  0  0  0  0
  5  6  1  0  0  0  0
  5  7  2  0  0  0  0
  7  1  1  0  0  0  0
  3  8  1  0  0  0  0
M  END
>  <BIO>
1.3000

$$$$
Unnamed
  -MTS-   06200417543D 0   0.00000     0.00000     0

 12 13  0  0  0  0  0  0  0  0  1 V2000
    6.6880    0.0370    1.2120 C   0  0  0  0  0  0  0  0  0  0  0  0
    5.9880    0.0330    0.0000 C   0  0  0  0  0  0  0  0  0  0  0  0
    6.6890    0.0370   -1.2140 N   0  0  0  0  0  0  0  0  0  0  0  0
    4.5880    0.0240    0.0000 C   0  0  0  0  0  0  0  0  0  0  0  0
    3.8880    0.0200    1.2120 C   0  0  0  0  0  0  0  0  0  0  0  0
    4.5880    0.0240    2.4250 C   0  0  0  0  0  0  0  0  0  0  0  0
    5.9880    0.0320    2.4250 C   0  0  0  0  0  0  0  0  0  0  0  0
    2.4880    0.0120    1.2120 C   0  0  0  0  0  0  0  0  0  0  0  0
    1.7880    0.0070    0.0000 C   0  0  0  0  0  0  0  0  0  0  0  0
    2.4880    0.0120   -1.2120 C   0  0  0  0  0  0  0  0  0  0  0  0
    3.8880    0.0200   -1.2120 C   0  0  0  0  0  0  0  0  0  0  0  0
    0.0180   -0.0030    0.0000 S   0  0  0  0  0  0  0  0  0  0  0  0
  1  2  2  0  0  0  0
  2  3  1  0  0  0  0
  2  4  1  0  0  0  0
  4  5  2  0  0  0  0
  5  6  1  0  0  0  0
  6  7  2  0  0  0  0
  7  1  1  0  0  0  0
  5  8  1  0  0  0  0
  8  9  2  0  0  0  0
  9 10  1  0  0  0  0
 10 11  2  0  0  0  0
 11  4  1  0  0  0  0
  9 12  1  0  0  0  0
M  END
>  <BIO>
24.0000

$$$$
Unnamed
  -MTS-   06200417543D 0   0.00000     0.00000     0

 15 16  0  0  0  0  0  0  0  0  1 V2000
    6.6880    0.0370    1.2130 C   0  0  0  0  0  0  0  0  0  0  0  0
    5.9880    0.0330    0.0000 C   0  0  0  0  0  0  0  0  0  0  0  0
    6.6960    0.0370   -1.2250 N   0  0  0  0  0  0  0  0  0  0  0  0
    7.0210    1.1910   -1.8010 C   0  0  0  0  0  0  0  0  0  0  0  0
    6.7070    2.2540   -1.2680 O   0  0  0  0  0  0  0  0  0  0  0  0
    7.7760    1.1960   -3.1090 C   0  0  0  0  0  0  0  0  0  0  0  0
    4.5880    0.0240    0.0000 C   0  0  0  0  0  0  0  0  0  0  0  0
    3.8880    0.0200    1.2130 C   0  0  0  0  0  0  0  0  0  0  0  0
    4.5880    0.0240    2.4250 C   0  0  0  0  0  0  0  0  0  0  0  0
    5.9880    0.0330    2.4250 C   0  0  0  0  0  0  0  0  0  0  0  0
    2.4880    0.0120    1.2120 C   0  0  0  0  0  0  0  0  0  0  0  0
    1.7880    0.0070    0.0000 C   0  0  0  0  0  0  0  0  0  0  0  0
    2.4880    0.0120   -1.2120 C   0  0  0  0  0  0  0  0  0  0  0  0
    3.8880    0.0200   -1.2120 C   0  0  0  0  0  0  0  0  0  0  0  0
    0.0180   -0.0030    0.0000 S   0  0  0  0  0  0  0  0  0  0  0  0
  1  2  2  0  0  0  0
  2  3  1  0  0  0  0
  3  4  1  0  0  0  0
  4  5  2  0  0  0  0
  4  6  1  0  0  0  0
  2  7  1  0  0  0  0
  7  8  2  0  0  0  0
  8  9  1  0  0  0  0
  9 10  2  0  0  0  0
 10  1  1  0  0  0  0
  8 11  1  0  0  0  0
 11 12  2  0  0  0  0
 12 13  1  0  0  0  0
 13 14  2  0  0  0  0
 14  7  1  0  0  0  0
 12 15  1  0  0  0  0
M  END
>  <BIO>
2.7000

$$$$
Unnamed
  -MTS-   06200417543D 0   0.00000     0.00000     0

 12 13  0  0  0  0  0  0  0  0  1 V2000
    6.6880    0.0360    1.2120 C   0  0  0  0  0  0  0  0  0  0  0  0
    8.0900    0.0450    1.2120 N   0  0  0  0  0  0  0  0  0  0  0  0
    5.9880    0.0320    0.0000 C   0  0  0  0  0  0  0  0  0  0  0  0
    4.5880    0.0240    0.0000 C   0  0  0  0  0  0  0  0  0  0  0  0
    3.8880    0.0200    1.2120 C   0  0  0  0  0  0  0  0  0  0  0  0
    4.5880    0.0240    2.4250 C   0  0  0  0  0  0  0  0  0  0  0  0
    5.9880    0.0320    2.4250 C   0  0  0  0  0  0  0  0  0  0  0  0
    2.4880    0.0110    1.2120 C   0  0  0  0  0  0  0  0  0  0  0  0
    1.7880    0.0070    0.0000 C   0  0  0  0  0  0  0  0  0  0  0  0
    2.4880    0.0110   -1.2120 C   0  0  0  0  0  0  0  0  0  0  0  0
    3.8880    0.0200   -1.2120 C   0  0  0  0  0  0  0  0  0  0  0  0
    0.0180   -0.0030    0.0000 S   0  0  0  0  0  0  0  0  0  0  0  0
  1  2  1  0  0  0  0
  1  3  2  0  0  0  0
  3  4  1  0  0  0  0
  4  5  2  0  0  0  0
  5  6  1  0  0  0  0
  6  7  2  0  0  0  0
  7  1  1  0  0  0  0
  5  8  1  0  0  0  0
  8  9  2  0  0  0  0
  9 10  1  0  0  0  0
 10 11  2  0  0  0  0
 11  4  1  0  0  0  0
  9 12  1  0  0  0  0
M  END
>  <BIO>
0.6000

$$$$
Unnamed
  -MTS-   06200417543D 0   0.00000     0.00000     0

 15 16  0  0  0  0  0  0  0  0  1 V2000
    6.6880    0.0370    1.2120 C   0  0  0  0  0  0  0  0  0  0  0  0
    8.1030    0.0450    1.2120 N   0  0  0  0  0  0  0  0  0  0  0  0
    8.7750   -1.1030    1.2130 C   0  0  0  0  0  0  0  0  0  0  0  0
    8.1660   -2.1720    1.2130 O   0  0  0  0  0  0  0  0  0  0  0  0
   10.2850   -1.0940    1.2120 C   0  0  0  0  0  0  0  0  0  0  0  0
    5.9880    0.0320    0.0000 C   0  0  0  0  0  0  0  0  0  0  0  0
    4.5880    0.0240    0.0000 C   0  0  0  0  0  0  0  0  0  0  0  0
    3.8880    0.0200    1.2120 C   0  0  0  0  0  0  0  0  0  0  0  0
    4.5880    0.0240    2.4250 C   0  0  0  0  0  0  0  0  0  0  0  0
    5.9880    0.0330    2.4250 C   0  0  0  0  0  0  0  0  0  0  0  0
    2.4880    0.0120    1.2120 C   0  0  0  0  0  0  0  0  0  0  0  0
    1.7880    0.0070    0.0000 C   0  0  0  0  0  0  0  0  0  0  0  0
    2.4880    0.0110   -1.2120 C   0  0  0  0  0  0  0  0  0  0  0  0
    3.8880    0.0200   -1.2120 C   0  0  0  0  0  0  0  0  0  0  0  0
    0.0180   -0.0030    0.0000 S   0  0  0  0  0  0  0  0  0  0  0  0
  1  2  1  0  0  0  0
  2  3  1  0  0  0  0
  3  4  2  0  0  0  0
  3  5  1  0  0  0  0
  1  6  2  0  0  0  0
  6  7  1  0  0  0  0
  7  8  2  0  0  0  0
  8  9  1  0  0  0  0
  9 10  2  0  0  0  0
 10  1  1  0  0  0  0
  8 11  1  0  0  0  0
 11 12  2  0  0  0  0
 12 13  1  0  0  0  0
 13 14  2  0  0  0  0
 14  7  1  0  0  0  0
 12 15  1  0  0  0  0
M  END
>  <BIO>
3.8000

$$$$
Unnamed
  -MTS-   06200417543D 0   0.00000     0.00000     0

 12 13  0  0  0  0  0  0  0  0  1 V2000
    6.6880    0.0370    1.2130 C   0  0  0  0  0  0  0  0  0  0  0  0
    5.9880    0.0330    0.0000 C   0  0  0  0  0  0  0  0  0  0  0  0
    4.5880    0.0240    0.0000 C   0  0  0  0  0  0  0  0  0  0  0  0
    3.8880    0.0200    1.2130 C   0  0  0  0  0  0  0  0  0  0  0  0
    4.5880    0.0240    2.4250 C   0  0  0  0  0  0  0  0  0  0  0  0
    5.9880    0.0330    2.4250 C   0  0  0  0  0  0  0  0  0  0  0  0
    6.6890    0.0370    3.6390 N   0  0  0  0  0  0  0  0  0  0  0  0
    2.4880    0.0120    1.2120 C   0  0  0  0  0  0  0  0  0  0  0  0
    1.7880    0.0070    0.0000 C   0  0  0  0  0  0  0  0  0  0  0  0
    2.4880    0.0120   -1.2120 C   0  0  0  0  0  0  0  0  0  0  0  0
    3.8880    0.0200   -1.2120 C   0  0  0  0  0  0  0  0  0  0  0  0
    0.0180   -0.0030    0.0000 S   0  0  0  0  0  0  0  0  0  0  0  0
  1  2  2  0  0  0  0
  2  3  1  0  0  0  0
  3  4  2  0  0  0  0
  4  5  1  0  0  0  0
  5  6  2  0  0  0  0
  6  1  1  0  0  0  0
  6  7  1  0  0  0  0
  4  8  1  0  0  0  0
  8  9  2  0  0  0  0
  9 10  1  0  0  0  0
 10 11  2  0  0  0  0
 11  3  1  0  0  0  0
  9 12  1  0  0  0  0
M  END
>  <BIO>
10.0000

$$$$
Unnamed
  -MTS-   06200417543D 0   0.00000     0.00000     0

 14 15  0  0  0  0  0  0  0  0  1 V2000
    6.6880    0.0370    1.2120 C   0  0  0  0  0  0  0  0  0  0  0  0
    5.9880    0.0330    0.0000 C   0  0  0  0  0  0  0  0  0  0  0  0
    4.5880    0.0240    0.0000 C   0  0  0  0  0  0  0  0  0  0  0  0
    3.8880    0.0200    1.2120 C   0  0  0  0  0  0  0  0  0  0  0  0
    4.5880    0.0240    2.4250 C   0  0  0  0  0  0  0  0  0  0  0  0
    5.9880    0.0330    2.4250 C   0  0  0  0  0  0  0  0  0  0  0  0
    6.6950    0.0370    3.6500 N   0  0  0  0  0  0  0  0  0  0  0  0
    6.9490   -1.3480    4.0750 C   0  0  0  0  0  0  0  0  0  0  0  0
    7.9760    0.7370    3.4750 C   0  0  0  0  0  0  0  0  0  0  0  0
    2.4880    0.0120    1.2120 C   0  0  0  0  0  0  0  0  0  0  0  0
    1.7880    0.0070    0.0000 C   0  0  0  0  0  0  0  0  0  0  0  0
    2.4880    0.0110   -1.2120 C   0  0  0  0  0  0  0  0  0  0  0  0
    3.8880    0.0200   -1.2120 C   0  0  0  0  0  0  0  0  0  0  0  0
    0.0180   -0.0030    0.0000 S   0  0  0  0  0  0  0  0  0  0  0  0
  1  2  2  0  0  0  0
  2  3  1  0  0  0  0
  3  4  2  0  0  0  0
  4  5  1  0  0  0  0
  5  6  2  0  0  0  0
  6  1  1  0  0  0  0
  6  7  1  0  0  0  0
  7  8  1  0  0  0  0
  7  9  1  0  0  0  0
  4 10  1  0  0  0  0
 10 11  2  0  0  0  0
 11 12  1  0  0  0  0
 12 13  2  0  0  0  0
 13  3  1  0  0  0  0
 11 14  1  0  0  0  0
M  END
>  <BIO>
1.4000

$$$$
Unnamed
  -MTS-   06200417543D 0   0.00000     0.00000     0

 15 16  0  0  0  0  0  0  0  0  1 V2000
    6.6880    0.0360    1.2130 C   0  0  0  0  0  0  0  0  0  0  0  0
    5.9880    0.0320    0.0000 C   0  0  0  0  0  0  0  0  0  0  0  0
    4.5880    0.0240    0.0000 C   0  0  0  0  0  0  0  0  0  0  0  0
    3.8880    0.0200    1.2120 C   0  0  0  0  0  0  0  0  0  0  0  0
    4.5880    0.0240    2.4250 C   0  0  0  0  0  0  0  0  0  0  0  0
    5.9880    0.0320    2.4250 C   0  0  0  0  0  0  0  0  0  0  0  0
    6.6960    0.0360    3.6500 N   0  0  0  0  0  0  0  0  0  0  0  0
    7.0350   -1.1130    4.2260 C   0  0  0  0  0  0  0  0  0  0  0  0
    6.7340   -2.1800    3.6940 O   0  0  0  0  0  0  0  0  0  0  0  0
    7.7900   -1.1090    5.5340 C   0  0  0  0  0  0  0  0  0  0  0  0
    2.4880    0.0110    1.2120 C   0  0  0  0  0  0  0  0  0  0  0  0
    1.7880    0.0070    0.0000 C   0  0  0  0  0  0  0  0  0  0  0  0
    2.4880    0.0120   -1.2120 C   0  0  0  0  0  0  0  0  0  0  0  0
    3.8880    0.0200   -1.2120 C   0  0  0  0  0  0  0  0  0  0  0  0
    0.0180   -0.0030    0.0000 S   0  0  0  0  0  0  0  0  0  0  0  0
  1  2  2  0  0  0  0
  2  3  1  0  0  0  0
  3  4  2  0  0  0  0
  4  5  1  0  0  0  0
  5  6  2  0  0  0  0
  6  1  1  0  0  0  0
  6  7  1  0  0  0  0
  7  8  1  0  0  0  0
  8  9  2  0  0  0  0
  8 10  1  0  0  0  0
  4 11  1  0  0  0  0
 11 12  2  0  0  0  0
 12 13  1  0  0  0  0
 13 14  2  0  0  0  0
 14  3  1  0  0  0  0
 12 15  1  0  0  0  0
M  END
>  <BIO>
42.0000

$$$$
Unnamed
  -MTS-   06200417543D 0   0.00000     0.00000     0

 12 13  0  0  0  0  0  0  0  0  1 V2000
    6.6880    0.0370    1.2120 C   0  0  0  0  0  0  0  0  0  0  0  0
    5.9880    0.0330    0.0000 C   0  0  0  0  0  0  0  0  0  0  0  0
    4.5880    0.0240    0.0000 C   0  0  0  0  0  0  0  0  0  0  0  0
    3.8880    0.0200    1.2120 C   0  0  0  0  0  0  0  0  0  0  0  0
    4.5880    0.0240    2.4250 C   0  0  0  0  0  0  0  0  0  0  0  0
    3.8870    0.0200    3.6390 N   0  0  0  0  0  0  0  0  0  0  0  0
    5.9880    0.0330    2.4250 C   0  0  0  0  0  0  0  0  0  0  0  0
    2.4880    0.0110    1.2120 C   0  0  0  0  0  0  0  0  0  0  0  0
    1.7880    0.0070    0.0000 C   0  0  0  0  0  0  0  0  0  0  0  0
    2.4880    0.0120   -1.2120 C   0  0  0  0  0  0  0  0  0  0  0  0
    3.8880    0.0200   -1.2120 C   0  0  0  0  0  0  0  0  0  0  0  0
    0.0180   -0.0030    0.0000 S   0  0  0  0  0  0  0  0  0  0  0  0
  1  2  2  0  0  0  0
  2  3  1  0  0  0  0
  3  4  2  0  0  0  0
  4  5  1  0  0  0  0
  5  6  1  0  0  0  0
  5  7  2  0  0  0  0
  7  1  1  0  0  0  0
  4  8  1  0  0  0  0
  8  9  2  0  0  0  0
  9 10  1  0  0  0  0
 10 11  2  0  0  0  0
 11  3  1  0  0  0  0
  9 12  1  0  0  0  0
M  END
>  <BIO>
9.8000

$$$$
Unnamed
  -MTS-   06200417543D 0   0.00000     0.00000     0

 14 15  0  0  0  0  0  0  0  0  1 V2000
    6.6880    0.0370    1.2130 C   0  0  0  0  0  0  0  0  0  0  0  0
    5.9880    0.0320    0.0000 C   0  0  0  0  0  0  0  0  0  0  0  0
    4.5880    0.0240    0.0000 C   0  0  0  0  0  0  0  0  0  0  0  0
    3.8880    0.0200    1.2130 C   0  0  0  0  0  0  0  0  0  0  0  0
    4.5880    0.0240    2.4250 C   0  0  0  0  0  0  0  0  0  0  0  0
    3.8810    0.0200    3.6500 N   0  0  0  0  0  0  0  0  0  0  0  0
    3.6440   -1.3680    4.0750 C   0  0  0  0  0  0  0  0  0  0  0  0
    4.6710    0.7170    4.6750 C   0  0  0  0  0  0  0  0  0  0  0  0
    5.9880    0.0320    2.4250 C   0  0  0  0  0  0  0  0  0  0  0  0
    2.4880    0.0110    1.2120 C   0  0  0  0  0  0  0  0  0  0  0  0
    1.7880    0.0070    0.0000 C   0  0  0  0  0  0  0  0  0  0  0  0
    2.4880    0.0120   -1.2120 C   0  0  0  0  0  0  0  0  0  0  0  0
    3.8880    0.0200   -1.2120 C   0  0  0  0  0  0  0  0  0  0  0  0
    0.0180   -0.0030    0.0000 S   0  0  0  0  0  0  0  0  0  0  0  0
  1  2  2  0  0  0  0
  2  3  1  0  0  0  0
  3  4  2  0  0  0  0
  4  5  1  0  0  0  0
  5  6  1  0  0  0  0
  6  7  1  0  0  0  0
  6  8  1  0  0  0  0
  5  9  2  0  0  0  0
  9  1  1  0  0  0  0
  4 10  1  0  0  0  0
 10 11  2  0  0  0  0
 11 12  1  0  0  0  0
 12 13  2  0  0  0  0
 13  3  1  0  0  0  0
 11 14  1  0  0  0  0
M  END
>  <BIO>
31.5000

$$$$
Unnamed
  -MTS-   06200417543D 0   0.00000     0.00000     0

 15 16  0  0  0  0  0  0  0  0  1 V2000
    6.6880    0.0360    1.2120 C   0  0  0  0  0  0  0  0  0  0  0  0
    5.9880    0.0320    0.0000 C   0  0  0  0  0  0  0  0  0  0  0  0
    4.5880    0.0240    0.0000 C   0  0  0  0  0  0  0  0  0  0  0  0
    3.8880    0.0200    1.2120 C   0  0  0  0  0  0  0  0  0  0  0  0
    4.5880    0.0240    2.4250 C   0  0  0  0  0  0  0  0  0  0  0  0
    3.8810    0.0200    3.6500 N   0  0  0  0  0  0  0  0  0  0  0  0
    3.5550   -1.1340    4.2260 C   0  0  0  0  0  0  0  0  0  0  0  0
    3.8690   -2.1970    3.6940 O   0  0  0  0  0  0  0  0  0  0  0  0
    2.8000   -1.1380    5.5340 C   0  0  0  0  0  0  0  0  0  0  0  0
    5.9880    0.0320    2.4250 C   0  0  0  0  0  0  0  0  0  0  0  0
    2.4880    0.0110    1.2120 C   0  0  0  0  0  0  0  0  0  0  0  0
    1.7880    0.0070    0.0000 C   0  0  0  0  0  0  0  0  0  0  0  0
    2.4880    0.0110   -1.2120 C   0  0  0  0  0  0  0  0  0  0  0  0
    3.8880    0.0200   -1.2120 C   0  0  0  0  0  0  0  0  0  0  0  0
    0.0180   -0.0030    0.0000 S   0  0  0  0  0  0  0  0  0  0  0  0
  1  2  2  0  0  0  0
  2  3  1  0  0  0  0
  3  4  2  0  0  0  0
  4  5  1  0  0  0  0
  5  6  1  0  0  0  0
  6  7  1  0  0  0  0
  7  8  2  0  0  0  0
  7  9  1  0  0  0  0
  5 10  2  0  0  0  0
 10  1  1  0  0  0  0
  4 11  1  0  0  0  0
 11 12  2  0  0  0  0
 12 13  1  0  0  0  0
 13 14  2  0  0  0  0
 14  3  1  0  0  0  0
 12 15  1  0  0  0  0
M  END
>  <BIO>
27.5000

$$$$
