Unnamed
  -MTS-   06200417563D 0   0.00000     0.00000     0

  6  6  0  0  0  0  0  0  0  0  1 V2000
    0.0180   -0.0030    0.0000 S   0  0  0  0  0  0  0  0  0  0  0  0
    1.7880    0.0070    0.0000 C   0  0  0  0  0  0  0  0  0  0  0  0
    2.6200    0.0120    1.1260 C   0  0  0  0  0  0  0  0  0  0  0  0
    3.9480    0.0200    0.6830 C   0  0  0  0  0  0  0  0  0  0  0  0
    3.9690    0.0200   -0.6570 N   0  0  0  0  0  0  0  0  0  0  0  0
    2.6260    0.0120   -1.1340 O   0  0  0  0  0  0  0  0  0  0  0  0
  1  2  1  0  0  0  0
  2  3  2  0  0  0  0
  3  4  1  0  0  0  0
  4  5  2  0  0  0  0
  5  6  1  0  0  0  0
  6  2  1  0  0  0  0
M  END
>  <BIO>
770.00

$$$$
Unnamed
  -MTS-   06200417563D 0   0.00000     0.00000     0

  6  6  0  0  0  0  0  0  0  0  1 V2000
   -0.0210    0.1310    0.0000 S   0  0  0  0  0  0  0  0  0  0  0  0
    1.7450    0.0490    0.0000 C   0  0  0  0  0  0  0  0  0  0  0  0
    2.5380    0.0130    1.1260 C   0  0  0  0  0  0  0  0  0  0  0  0
    3.7450   -0.0510    0.4400 C   0  0  0  0  0  0  0  0  0  0  0  0
    3.6250   -0.0500   -0.5930 N   0  0  0  0  0  0  0  0  0  0  0  0
    2.6580    0.0000   -0.9870 N   0  0  0  0  0  0  0  0  0  0  0  0
  1  2  1  0  0  0  0
  2  3  1  0  0  0  0
  3  4  2  0  0  0  0
  4  5  1  0  0  0  0
  5  6  1  0  0  0  0
  6  2  2  0  0  0  0
M  END
>  <BIO>
610.00

$$$$
Unnamed
  -MTS-   06200417563D 0   0.00000     0.00000     0

 14 15  0  0  0  0  0  0  0  0  1 V2000
   -0.0210    0.1320    0.0000 S   0  0  0  0  0  0  0  0  0  0  0  0
    1.7480    0.0470    0.0000 C   0  0  0  0  0  0  0  0  0  0  0  0
    2.5680    0.0140   -1.1200 C   0  0  0  0  0  0  0  0  0  0  0  0
    3.5710   -0.0280   -0.8610 N   0  0  0  0  0  0  0  0  0  0  0  0
    3.7970   -0.0570    0.1550 C   0  0  0  0  0  0  0  0  0  0  0  0
    5.4210   -0.2020    0.8630 S   0  0  0  0  0  0  0  0  0  0  0  0
    5.5160   -2.0180    0.9070 C   0  0  0  0  0  0  0  0  0  0  0  0
    6.8830   -2.3730    1.5020 C   0  0  0  0  0  0  0  0  0  0  0  0
    7.0400   -2.5370    2.8830 C   0  0  0  0  0  0  0  0  0  0  0  0
    8.2940   -2.8430    3.4180 C   0  0  0  0  0  0  0  0  0  0  0  0
    9.3990   -2.9940    2.5750 C   0  0  0  0  0  0  0  0  0  0  0  0
    9.2450   -2.8400    1.1950 C   0  0  0  0  0  0  0  0  0  0  0  0
    7.9900   -2.5360    0.6610 C   0  0  0  0  0  0  0  0  0  0  0  0
    2.6960    0.0010    0.9290 N   0  0  0  0  0  0  0  0  0  0  0  0
  1  2  1  0  0  0  0
  2  3  2  0  0  0  0
  3  4  1  0  0  0  0
  4  5  1  0  0  0  0
  5  6  1  0  0  0  0
  6  7  1  0  0  0  0
  7  8  1  0  0  0  0
  8  9  2  0  0  0  0
  9 10  1  0  0  0  0
 10 11  2  0  0  0  0
 11 12  1  0  0  0  0
 12 13  2  0  0  0  0
 13  8  1  0  0  0  0
  5 14  2  0  0  0  0
 14  2  1  0  0  0  0
M  END
>  <BIO>
750.00

$$$$
Unnamed
  -MTS-   06200417563D 0   0.00000     0.00000     0

  6  6  0  0  0  0  0  0  0  0  1 V2000
   -0.0210    0.1330    0.0000 S   0  0  0  0  0  0  0  0  0  0  0  0
    1.7480    0.0470    0.0000 C   0  0  0  0  0  0  0  0  0  0  0  0
    2.5670    0.0070    1.1220 C   0  0  0  0  0  0  0  0  0  0  0  0
    3.5710   -0.0310    0.8630 N   0  0  0  0  0  0  0  0  0  0  0  0
    3.8000   -0.0470   -0.1570 C   0  0  0  0  0  0  0  0  0  0  0  0
    2.6970    0.0090   -0.9290 N   0  0  0  0  0  0  0  0  0  0  0  0
  1  2  1  0  0  0  0
  2  3  2  0  0  0  0
  3  4  1  0  0  0  0
  4  5  1  0  0  0  0
  5  6  2  0  0  0  0
  6  2  1  0  0  0  0
M  END
>  <BIO>
520.00

$$$$
Unnamed
  -MTS-   06200417563D 0   0.00000     0.00000     0

  6  6  0  0  0  0  0  0  0  0  1 V2000
   -0.0190    0.1340    0.0000 S   0  0  0  0  0  0  0  0  0  0  0  0
    1.7510    0.0430    0.0000 C   0  0  0  0  0  0  0  0  0  0  0  0
    2.5550    0.0020    1.1260 C   0  0  0  0  0  0  0  0  0  0  0  0
    3.5330   -0.0610    0.8500 N   0  0  0  0  0  0  0  0  0  0  0  0
    3.7320   -0.0800   -0.1610 N   0  0  0  0  0  0  0  0  0  0  0  0
    2.6670   -0.0200   -0.9680 N   0  0  0  0  0  0  0  0  0  0  0  0
  1  2  1  0  0  0  0
  2  3  2  0  0  0  0
  3  4  1  0  0  0  0
  4  5  1  0  0  0  0
  5  6  2  0  0  0  0
  6  2  1  0  0  0  0
M  END
>  <BIO>
5.20

$$$$
Unnamed
  -MTS-   06200417563D 0   0.00000     0.00000     0

  6  6  0  0  0  0  0  0  0  0  1 V2000
    0.0180   -0.0030    0.0000 S   0  0  0  0  0  0  0  0  0  0  0  0
    1.7880    0.0070    0.0000 C   0  0  0  0  0  0  0  0  0  0  0  0
    2.6040    0.0120   -1.1380 C   0  0  0  0  0  0  0  0  0  0  0  0
    3.9350    0.0200   -0.6740 O   0  0  0  0  0  0  0  0  0  0  0  0
    3.8610    0.0200    0.7340 C   0  0  0  0  0  0  0  0  0  0  0  0
    2.5690    0.0120    1.0890 N   0  0  0  0  0  0  0  0  0  0  0  0
  1  2  1  0  0  0  0
  2  3  2  0  0  0  0
  3  4  1  0  0  0  0
  4  5  1  0  0  0  0
  5  6  2  0  0  0  0
  6  2  1  0  0  0  0
M  END
>  <BIO>
100.00

$$$$
Unnamed
  -MTS-   06200417563D 0   0.00000     0.00000     0

  7  7  0  0  0  0  0  0  0  0  1 V2000
    0.0180   -0.0030    0.0000 S   0  0  0  0  0  0  0  0  0  0  0  0
    1.7880    0.0070    0.0000 C   0  0  0  0  0  0  0  0  0  0  0  0
    2.6040    0.0120   -1.1380 C   0  0  0  0  0  0  0  0  0  0  0  0
    3.9350    0.0200   -0.6740 O   0  0  0  0  0  0  0  0  0  0  0  0
    3.8610    0.0200    0.7340 C   0  0  0  0  0  0  0  0  0  0  0  0
    5.0370    0.0270    1.6800 C   0  0  0  0  0  0  0  0  0  0  0  0
    2.5690    0.0120    1.0890 N   0  0  0  0  0  0  0  0  0  0  0  0
  1  2  1  0  0  0  0
  2  3  2  0  0  0  0
  3  4  1  0  0  0  0
  4  5  1  0  0  0  0
  5  6  1  0  0  0  0
  5  7  2  0  0  0  0
  7  2  1  0  0  0  0
M  END
>  <BIO>
1100.00

$$$$
Unnamed
  -MTS-   06200417563D 0   0.00000     0.00000     0

  7  7  0  0  0  0  0  0  0  0  1 V2000
    0.0180   -0.0030    0.0000 S   0  0  0  0  0  0  0  0  0  0  0  0
    1.7880    0.0070    0.0000 C   0  0  0  0  0  0  0  0  0  0  0  0
    2.5280    0.0120   -1.1880 C   0  0  0  0  0  0  0  0  0  0  0  0
    4.1870    0.0220   -0.6640 S   0  0  0  0  0  0  0  0  0  0  0  0
    3.8330    0.0200    1.0390 C   0  0  0  0  0  0  0  0  0  0  0  0
    4.7570    0.0250    2.0940 N   0  0  0  0  0  0  0  0  0  0  0  0
    2.4960    0.0110    1.1380 N   0  0  0  0  0  0  0  0  0  0  0  0
  1  2  1  0  0  0  0
  2  3  2  0  0  0  0
  3  4  1  0  0  0  0
  4  5  1  0  0  0  0
  5  6  1  0  0  0  0
  5  7  2  0  0  0  0
  7  2  1  0  0  0  0
M  END
>  <BIO>
320.00

$$$$
Unnamed
  -MTS-   06200417563D 0   0.00000     0.00000     0

  7  7  0  0  0  0  0  0  0  0  1 V2000
    0.0180   -0.0030    0.0000 S   0  0  0  0  0  0  0  0  0  0  0  0
    1.7880    0.0070    0.0000 C   0  0  0  0  0  0  0  0  0  0  0  0
    2.5280    0.0120   -1.1890 C   0  0  0  0  0  0  0  0  0  0  0  0
    4.1870    0.0220   -0.6640 S   0  0  0  0  0  0  0  0  0  0  0  0
    3.8330    0.0200    1.0390 C   0  0  0  0  0  0  0  0  0  0  0  0
    4.9990    0.0260    2.3700 S   0  0  0  0  0  0  0  0  0  0  0  0
    2.4960    0.0110    1.1380 N   0  0  0  0  0  0  0  0  0  0  0  0
  1  2  1  0  0  0  0
  2  3  2  0  0  0  0
  3  4  1  0  0  0  0
  4  5  1  0  0  0  0
  5  6  1  0  0  0  0
  5  7  2  0  0  0  0
  7  2  1  0  0  0  0
M  END
>  <BIO>
890.00

$$$$
Unnamed
  -MTS-   06200417563D 0   0.00000     0.00000     0

  8  8  0  0  0  0  0  0  0  0  1 V2000
    0.0180   -0.0030    0.0000 S   0  0  0  0  0  0  0  0  0  0  0  0
    1.7880    0.0070    0.0000 C   0  0  0  0  0  0  0  0  0  0  0  0
    2.5280    0.0120   -1.1880 C   0  0  0  0  0  0  0  0  0  0  0  0
    4.1870    0.0220   -0.6640 S   0  0  0  0  0  0  0  0  0  0  0  0
    3.8330    0.0200    1.0390 C   0  0  0  0  0  0  0  0  0  0  0  0
    4.9990    0.0260    2.3700 S   0  0  0  0  0  0  0  0  0  0  0  0
    5.4090   -1.6870    2.8270 C   0  0  0  0  0  0  0  0  0  0  0  0
    2.4960    0.0120    1.1380 N   0  0  0  0  0  0  0  0  0  0  0  0
  1  2  1  0  0  0  0
  2  3  2  0  0  0  0
  3  4  1  0  0  0  0
  4  5  1  0  0  0  0
  5  6  1  0  0  0  0
  6  7  1  0  0  0  0
  5  8  2  0  0  0  0
  8  2  1  0  0  0  0
M  END
>  <BIO>
2800.00

$$$$
Unnamed
  -MTS-   06200417563D 0   0.00000     0.00000     0

 14 15  0  0  0  0  0  0  0  0  1 V2000
    0.0180   -0.0030    0.0000 S   0  0  0  0  0  0  0  0  0  0  0  0
    1.7880    0.0070    0.0000 C   0  0  0  0  0  0  0  0  0  0  0  0
    2.5280    0.0120   -1.1890 C   0  0  0  0  0  0  0  0  0  0  0  0
    4.1870    0.0220   -0.6640 S   0  0  0  0  0  0  0  0  0  0  0  0
    3.8330    0.0200    1.0390 C   0  0  0  0  0  0  0  0  0  0  0  0
    4.9990    0.0270    2.3700 S   0  0  0  0  0  0  0  0  0  0  0  0
    5.4090   -1.6870    2.8270 C   0  0  0  0  0  0  0  0  0  0  0  0
    6.4040   -1.6810    3.9620 C   0  0  0  0  0  0  0  0  0  0  0  0
    5.9540   -1.6840    5.2880 C   0  0  0  0  0  0  0  0  0  0  0  0
    6.8770   -1.6780    6.3410 C   0  0  0  0  0  0  0  0  0  0  0  0
    8.2500   -1.6700    6.0680 C   0  0  0  0  0  0  0  0  0  0  0  0
    8.7000   -1.6670    4.7430 C   0  0  0  0  0  0  0  0  0  0  0  0
    7.7780   -1.6730    3.6900 C   0  0  0  0  0  0  0  0  0  0  0  0
    2.4960    0.0120    1.1380 N   0  0  0  0  0  0  0  0  0  0  0  0
  1  2  1  0  0  0  0
  2  3  2  0  0  0  0
  3  4  1  0  0  0  0
  4  5  1  0  0  0  0
  5  6  1  0  0  0  0
  6  7  1  0  0  0  0
  7  8  1  0  0  0  0
  8  9  2  0  0  0  0
  9 10  1  0  0  0  0
 10 11  2  0  0  0  0
 11 12  1  0  0  0  0
 12 13  2  0  0  0  0
 13  8  1  0  0  0  0
  5 14  2  0  0  0  0
 14  2  1  0  0  0  0
M  END
>  <BIO>
5800.00

$$$$
Unnamed
  -MTS-   06200417563D 0   0.00000     0.00000     0

  8  8  0  0  0  0  0  0  0  0  1 V2000
    0.0180   -0.0030    0.0000 S   0  0  0  0  0  0  0  0  0  0  0  0
    1.7880    0.0070    0.0000 C   0  0  0  0  0  0  0  0  0  0  0  0
    2.5280    0.0120   -1.1890 C   0  0  0  0  0  0  0  0  0  0  0  0
    4.1870    0.0220   -0.6640 S   0  0  0  0  0  0  0  0  0  0  0  0
    3.8330    0.0200    1.0390 C   0  0  0  0  0  0  0  0  0  0  0  0
    4.7360    0.0250    2.0690 O   0  0  0  0  0  0  0  0  0  0  0  0
    5.1860   -1.2350    2.5740 C   0  0  0  0  0  0  0  0  0  0  0  0
    2.4960    0.0120    1.1380 N   0  0  0  0  0  0  0  0  0  0  0  0
  1  2  1  0  0  0  0
  2  3  2  0  0  0  0
  3  4  1  0  0  0  0
  4  5  1  0  0  0  0
  5  6  1  0  0  0  0
  6  7  1  0  0  0  0
  5  8  2  0  0  0  0
  8  2  1  0  0  0  0
M  END
>  <BIO>
1150.00

$$$$
Unnamed
  -MTS-   06200417563D 0   0.00000     0.00000     0

  6  6  0  0  0  0  0  0  0  0  1 V2000
    0.0180   -0.0030    0.0000 S   0  0  0  0  0  0  0  0  0  0  0  0
    1.7880    0.0070    0.0000 C   0  0  0  0  0  0  0  0  0  0  0  0
    2.5320    0.0120   -1.1860 C   0  0  0  0  0  0  0  0  0  0  0  0
    4.1860    0.0220   -0.6450 S   0  0  0  0  0  0  0  0  0  0  0  0
    3.8380    0.0200    1.0600 C   0  0  0  0  0  0  0  0  0  0  0  0
    2.5000    0.0120    1.1350 N   0  0  0  0  0  0  0  0  0  0  0  0
  1  2  1  0  0  0  0
  2  3  2  0  0  0  0
  3  4  1  0  0  0  0
  4  5  1  0  0  0  0
  5  6  2  0  0  0  0
  6  2  1  0  0  0  0
M  END
>  <BIO>
93.00

$$$$
