Unnamed
  -MTS-   06200417563D 0   0.00000     0.00000     0

 13 13  0  0  0  0  0  0  0  0  1 V2000
   -0.0010    0.0000    0.0000 S   0  0  0  0  0  0  0  0  0  0  0  0
    1.8190    0.0000    0.0000 C   0  0  0  0  0  0  0  0  0  0  0  0
    2.3090   -1.3860    0.0000 N   0  0  0  0  0  0  0  0  0  0  0  0
    3.7240   -1.3870    0.0000 C   0  0  0  0  0  0  0  0  0  0  0  0
    4.4240   -1.3870    1.2120 C   0  0  0  0  0  0  0  0  0  0  0  0
    3.7390   -1.3870    2.3990 O   0  0  0  0  0  0  0  0  0  0  0  0
    3.4030   -2.6490    2.9800 C   0  0  0  0  0  0  0  0  0  0  0  0
    5.8240   -1.3870    1.2120 C   0  0  0  0  0  0  0  0  0  0  0  0
    6.5240   -1.3870    0.0000 C   0  0  0  0  0  0  0  0  0  0  0  0
    5.8240   -1.3870   -1.2120 C   0  0  0  0  0  0  0  0  0  0  0  0
    6.5090   -1.3870   -2.3990 O   0  0  0  0  0  0  0  0  0  0  0  0
    6.8450   -0.1240   -2.9800 C   0  0  0  0  0  0  0  0  0  0  0  0
    4.4240   -1.3870   -1.2120 C   0  0  0  0  0  0  0  0  0  0  0  0
  1  2  1  0  0  0  0
  2  3  1  0  0  0  0
  3  4  1  0  0  0  0
  4  5  2  0  0  0  0
  5  6  1  0  0  0  0
  6  7  1  0  0  0  0
  5  8  1  0  0  0  0
  8  9  2  0  0  0  0
  9 10  1  0  0  0  0
 10 11  1  0  0  0  0
 11 12  1  0  0  0  0
 10 13  2  0  0  0  0
 13  4  1  0  0  0  0
M  END
>  <BIO>
0.0440

$$$$
Unnamed
  -MTS-   06200417563D 0   0.00000     0.00000     0

 15 15  0  0  0  0  0  0  0  0  1 V2000
   -0.0010    0.0000    0.0000 S   0  0  0  0  0  0  0  0  0  0  0  0
    1.8190    0.0000    0.0000 C   0  0  0  0  0  0  0  0  0  0  0  0
    2.3090   -1.3860    0.0000 N   0  0  0  0  0  0  0  0  0  0  0  0
    3.7230   -1.3870    0.0000 C   0  0  0  0  0  0  0  0  0  0  0  0
    4.4240   -1.3870    1.2120 C   0  0  0  0  0  0  0  0  0  0  0  0
    5.8230   -1.3870    1.2120 C   0  0  0  0  0  0  0  0  0  0  0  0
    6.5080   -1.3870    2.3990 O   0  0  0  0  0  0  0  0  0  0  0  0
    6.8440   -2.6500    2.9800 C   0  0  0  0  0  0  0  0  0  0  0  0
    6.5240   -1.3870    0.0000 C   0  0  0  0  0  0  0  0  0  0  0  0
    7.8940   -1.3870    0.0000 O   0  0  0  0  0  0  0  0  0  0  0  0
    8.5650   -0.1250    0.0000 C   0  0  0  0  0  0  0  0  0  0  0  0
    5.8230   -1.3870   -1.2120 C   0  0  0  0  0  0  0  0  0  0  0  0
    6.5090   -1.3870   -2.3990 O   0  0  0  0  0  0  0  0  0  0  0  0
    6.8440   -0.1240   -2.9800 C   0  0  0  0  0  0  0  0  0  0  0  0
    4.4240   -1.3870   -1.2120 C   0  0  0  0  0  0  0  0  0  0  0  0
  1  2  1  0  0  0  0
  2  3  1  0  0  0  0
  3  4  1  0  0  0  0
  4  5  2  0  0  0  0
  5  6  1  0  0  0  0
  6  7  1  0  0  0  0
  7  8  1  0  0  0  0
  6  9  2  0  0  0  0
  9 10  1  0  0  0  0
 10 11  1  0  0  0  0
  9 12  1  0  0  0  0
 12 13  1  0  0  0  0
 13 14  1  0  0  0  0
 12 15  2  0  0  0  0
 15  4  1  0  0  0  0
M  END
>  <BIO>
0.0059

$$$$
Unnamed
  -MTS-   06200417563D 0   0.00000     0.00000     0

 16 16  0  0  0  0  0  0  0  0  1 V2000
   -0.0010    0.0000    0.0000 S   0  0  0  0  0  0  0  0  0  0  0  0
    1.8190    0.0000    0.0000 C   0  0  0  0  0  0  0  0  0  0  0  0
    2.3090   -1.3860    0.0000 N   0  0  0  0  0  0  0  0  0  0  0  0
    1.8180   -2.0790   -1.2000 C   0  0  0  0  0  0  0  0  0  0  0  0
    3.7230   -1.3870    0.0000 C   0  0  0  0  0  0  0  0  0  0  0  0
    4.4240   -1.3870    1.2120 C   0  0  0  0  0  0  0  0  0  0  0  0
    5.8230   -1.3870    1.2120 C   0  0  0  0  0  0  0  0  0  0  0  0
    6.5080   -1.3870    2.3990 O   0  0  0  0  0  0  0  0  0  0  0  0
    6.8440   -2.6500    2.9800 C   0  0  0  0  0  0  0  0  0  0  0  0
    6.5240   -1.3870    0.0000 C   0  0  0  0  0  0  0  0  0  0  0  0
    7.8940   -1.3870    0.0000 O   0  0  0  0  0  0  0  0  0  0  0  0
    8.5650   -0.1250    0.0000 C   0  0  0  0  0  0  0  0  0  0  0  0
    5.8230   -1.3870   -1.2120 C   0  0  0  0  0  0  0  0  0  0  0  0
    6.5090   -1.3870   -2.3990 O   0  0  0  0  0  0  0  0  0  0  0  0
    6.8440   -0.1240   -2.9800 C   0  0  0  0  0  0  0  0  0  0  0  0
    4.4240   -1.3870   -1.2120 C   0  0  0  0  0  0  0  0  0  0  0  0
  1  2  1  0  0  0  0
  2  3  1  0  0  0  0
  3  4  1  0  0  0  0
  3  5  1  0  0  0  0
  5  6  2  0  0  0  0
  6  7  1  0  0  0  0
  7  8  1  0  0  0  0
  8  9  1  0  0  0  0
  7 10  2  0  0  0  0
 10 11  1  0  0  0  0
 11 12  1  0  0  0  0
 10 13  1  0  0  0  0
 13 14  1  0  0  0  0
 14 15  1  0  0  0  0
 13 16  2  0  0  0  0
 16  5  1  0  0  0  0
M  END
>  <BIO>
0.0120

$$$$
Unnamed
  -MTS-   06200417563D 0   0.00000     0.00000     0

 13 13  0  0  0  0  0  0  0  0  1 V2000
   -0.0010    0.0000    0.0000 S   0  0  0  0  0  0  0  0  0  0  0  0
    1.8190    0.0000    0.0000 C   0  0  0  0  0  0  0  0  0  0  0  0
    2.3280   -1.4410    0.0000 C   0  0  0  0  0  0  0  0  0  0  0  0
    3.8380   -1.4410    0.0000 C   0  0  0  0  0  0  0  0  0  0  0  0
    4.5380   -1.4420    1.2120 C   0  0  0  0  0  0  0  0  0  0  0  0
    3.8530   -1.4410    2.3990 O   0  0  0  0  0  0  0  0  0  0  0  0
    3.5170   -2.7040    2.9800 C   0  0  0  0  0  0  0  0  0  0  0  0
    5.9380   -1.4420    1.2120 C   0  0  0  0  0  0  0  0  0  0  0  0
    6.6380   -1.4420    0.0000 C   0  0  0  0  0  0  0  0  0  0  0  0
    5.9380   -1.4420   -1.2120 C   0  0  0  0  0  0  0  0  0  0  0  0
    6.6230   -1.4420   -2.3990 O   0  0  0  0  0  0  0  0  0  0  0  0
    6.9590   -0.1800   -2.9800 C   0  0  0  0  0  0  0  0  0  0  0  0
    4.5380   -1.4420   -1.2120 C   0  0  0  0  0  0  0  0  0  0  0  0
  1  2  1  0  0  0  0
  2  3  1  0  0  0  0
  3  4  1  0  0  0  0
  4  5  2  0  0  0  0
  5  6  1  0  0  0  0
  6  7  1  0  0  0  0
  5  8  1  0  0  0  0
  8  9  2  0  0  0  0
  9 10  1  0  0  0  0
 10 11  1  0  0  0  0
 11 12  1  0  0  0  0
 10 13  2  0  0  0  0
 13  4  1  0  0  0  0
M  END
>  <BIO>
0.0280

$$$$
Unnamed
  -MTS-   06200417563D 0   0.00000     0.00000     0

 14 14  0  0  0  0  0  0  0  0  1 V2000
   -0.0010    0.0000    0.0000 S   0  0  0  0  0  0  0  0  0  0  0  0
    1.8190    0.0000    0.0000 C   0  0  0  0  0  0  0  0  0  0  0  0
    2.3280   -1.4410    0.0000 C   0  0  0  0  0  0  0  0  0  0  0  0
    3.8560   -1.4410    0.0000 C   0  0  0  0  0  0  0  0  0  0  0  0
    4.3590   -2.8650    0.0000 C   0  0  0  0  0  0  0  0  0  0  0  0
    4.5920   -3.5250   -1.2130 C   0  0  0  0  0  0  0  0  0  0  0  0
    4.3640   -2.8790   -2.3990 O   0  0  0  0  0  0  0  0  0  0  0  0
    5.4420   -2.1420   -2.9800 C   0  0  0  0  0  0  0  0  0  0  0  0
    5.0580   -4.8450   -1.2130 C   0  0  0  0  0  0  0  0  0  0  0  0
    5.2920   -5.5050    0.0000 C   0  0  0  0  0  0  0  0  0  0  0  0
    5.0590   -4.8450    1.2120 C   0  0  0  0  0  0  0  0  0  0  0  0
    5.2870   -5.4910    2.3990 O   0  0  0  0  0  0  0  0  0  0  0  0
    4.2080   -6.2280    2.9800 C   0  0  0  0  0  0  0  0  0  0  0  0
    4.5920   -3.5250    1.2120 C   0  0  0  0  0  0  0  0  0  0  0  0
  1  2  1  0  0  0  0
  2  3  1  0  0  0  0
  3  4  1  0  0  0  0
  4  5  1  0  0  0  0
  5  6  2  0  0  0  0
  6  7  1  0  0  0  0
  7  8  1  0  0  0  0
  6  9  1  0  0  0  0
  9 10  2  0  0  0  0
 10 11  1  0  0  0  0
 11 12  1  0  0  0  0
 12 13  1  0  0  0  0
 11 14  2  0  0  0  0
 14  5  1  0  0  0  0
M  END
>  <BIO>
2.1000

$$$$
Unnamed
  -MTS-   06200417563D 0   0.00000     0.00000     0

 15 15  0  0  0  0  0  0  0  0  1 V2000
   -0.0010    0.0000    0.0000 S   0  0  0  0  0  0  0  0  0  0  0  0
    1.8190    0.0000    0.0000 C   0  0  0  0  0  0  0  0  0  0  0  0
    2.3280   -1.4410    0.0000 C   0  0  0  0  0  0  0  0  0  0  0  0
    3.8560   -1.4410    0.0000 C   0  0  0  0  0  0  0  0  0  0  0  0
    4.3650   -2.8820    0.0000 C   0  0  0  0  0  0  0  0  0  0  0  0
    5.8750   -2.8820    0.0000 C   0  0  0  0  0  0  0  0  0  0  0  0
    6.5750   -2.8830    1.2120 C   0  0  0  0  0  0  0  0  0  0  0  0
    5.8900   -2.8830    2.3990 O   0  0  0  0  0  0  0  0  0  0  0  0
    5.5540   -4.1450    2.9800 C   0  0  0  0  0  0  0  0  0  0  0  0
    7.9750   -2.8830    1.2120 C   0  0  0  0  0  0  0  0  0  0  0  0
    8.6750   -2.8830    0.0000 C   0  0  0  0  0  0  0  0  0  0  0  0
    7.9750   -2.8830   -1.2130 C   0  0  0  0  0  0  0  0  0  0  0  0
    8.6600   -2.8830   -2.3990 O   0  0  0  0  0  0  0  0  0  0  0  0
    8.9960   -1.6200   -2.9800 C   0  0  0  0  0  0  0  0  0  0  0  0
    6.5750   -2.8820   -1.2130 C   0  0  0  0  0  0  0  0  0  0  0  0
  1  2  1  0  0  0  0
  2  3  1  0  0  0  0
  3  4  1  0  0  0  0
  4  5  1  0  0  0  0
  5  6  1  0  0  0  0
  6  7  2  0  0  0  0
  7  8  1  0  0  0  0
  8  9  1  0  0  0  0
  7 10  1  0  0  0  0
 10 11  2  0  0  0  0
 11 12  1  0  0  0  0
 12 13  1  0  0  0  0
 13 14  1  0  0  0  0
 12 15  2  0  0  0  0
 15  6  1  0  0  0  0
M  END
>  <BIO>
1.9000

$$$$
Unnamed
  -MTS-   06200417563D 0   0.00000     0.00000     0

 15 15  0  0  0  0  0  0  0  0  1 V2000
   -0.0010    0.0000    0.0000 S   0  0  0  0  0  0  0  0  0  0  0  0
    1.8190    0.0000    0.0000 C   0  0  0  0  0  0  0  0  0  0  0  0
    2.3280   -1.4410    0.0000 C   0  0  0  0  0  0  0  0  0  0  0  0
    3.8380   -1.4410    0.0000 C   0  0  0  0  0  0  0  0  0  0  0  0
    4.5380   -1.4420    1.2120 C   0  0  0  0  0  0  0  0  0  0  0  0
    5.9380   -1.4420    1.2120 C   0  0  0  0  0  0  0  0  0  0  0  0
    6.6230   -1.4420    2.3990 O   0  0  0  0  0  0  0  0  0  0  0  0
    6.9580   -2.7050    2.9800 C   0  0  0  0  0  0  0  0  0  0  0  0
    6.6380   -1.4420    0.0000 C   0  0  0  0  0  0  0  0  0  0  0  0
    8.0080   -1.4420    0.0000 O   0  0  0  0  0  0  0  0  0  0  0  0
    8.6790   -0.1800    0.0000 C   0  0  0  0  0  0  0  0  0  0  0  0
    5.9380   -1.4420   -1.2120 C   0  0  0  0  0  0  0  0  0  0  0  0
    6.6230   -1.4420   -2.3990 O   0  0  0  0  0  0  0  0  0  0  0  0
    6.9590   -0.1790   -2.9800 C   0  0  0  0  0  0  0  0  0  0  0  0
    4.5380   -1.4420   -1.2130 C   0  0  0  0  0  0  0  0  0  0  0  0
  1  2  1  0  0  0  0
  2  3  1  0  0  0  0
  3  4  1  0  0  0  0
  4  5  2  0  0  0  0
  5  6  1  0  0  0  0
  6  7  1  0  0  0  0
  7  8  1  0  0  0  0
  6  9  2  0  0  0  0
  9 10  1  0  0  0  0
 10 11  1  0  0  0  0
  9 12  1  0  0  0  0
 12 13  1  0  0  0  0
 13 14  1  0  0  0  0
 12 15  2  0  0  0  0
 15  4  1  0  0  0  0
M  END
>  <BIO>
0.0060

$$$$
Unnamed
  -MTS-   06200417563D 0   0.00000     0.00000     0

 16 16  0  0  0  0  0  0  0  0  1 V2000
   -0.0010    0.0000    0.0000 S   0  0  0  0  0  0  0  0  0  0  0  0
    1.8190    0.0000    0.0000 C   0  0  0  0  0  0  0  0  0  0  0  0
    2.3280   -1.4410    0.0000 C   0  0  0  0  0  0  0  0  0  0  0  0
    3.8560   -1.4410    0.0000 C   0  0  0  0  0  0  0  0  0  0  0  0
    4.3590   -2.8650    0.0000 C   0  0  0  0  0  0  0  0  0  0  0  0
    4.5920   -3.5250   -1.2120 C   0  0  0  0  0  0  0  0  0  0  0  0
    5.0590   -4.8450   -1.2130 C   0  0  0  0  0  0  0  0  0  0  0  0
    5.2870   -5.4910   -2.3990 O   0  0  0  0  0  0  0  0  0  0  0  0
    6.5890   -5.3870   -2.9800 C   0  0  0  0  0  0  0  0  0  0  0  0
    5.2920   -5.5050    0.0000 C   0  0  0  0  0  0  0  0  0  0  0  0
    5.7480   -6.7970    0.0000 O   0  0  0  0  0  0  0  0  0  0  0  0
    7.1620   -7.0090    0.0000 C   0  0  0  0  0  0  0  0  0  0  0  0
    5.0580   -4.8450    1.2120 C   0  0  0  0  0  0  0  0  0  0  0  0
    5.2860   -5.4910    2.3990 O   0  0  0  0  0  0  0  0  0  0  0  0
    4.2080   -6.2280    2.9800 C   0  0  0  0  0  0  0  0  0  0  0  0
    4.5920   -3.5250    1.2120 C   0  0  0  0  0  0  0  0  0  0  0  0
  1  2  1  0  0  0  0
  2  3  1  0  0  0  0
  3  4  1  0  0  0  0
  4  5  1  0  0  0  0
  5  6  2  0  0  0  0
  6  7  1  0  0  0  0
  7  8  1  0  0  0  0
  8  9  1  0  0  0  0
  7 10  2  0  0  0  0
 10 11  1  0  0  0  0
 11 12  1  0  0  0  0
 10 13  1  0  0  0  0
 13 14  1  0  0  0  0
 14 15  1  0  0  0  0
 13 16  2  0  0  0  0
 16  5  1  0  0  0  0
M  END
>  <BIO>
5.4000

$$$$
Unnamed
  -MTS-   06200417563D 0   0.00000     0.00000     0

 17 17  0  0  0  0  0  0  0  0  1 V2000
   -0.0010    0.0000    0.0000 S   0  0  0  0  0  0  0  0  0  0  0  0
    1.8190    0.0000    0.0000 C   0  0  0  0  0  0  0  0  0  0  0  0
    2.3280   -1.4410    0.0000 C   0  0  0  0  0  0  0  0  0  0  0  0
    3.8560   -1.4410    0.0000 C   0  0  0  0  0  0  0  0  0  0  0  0
    4.3650   -2.8820    0.0000 C   0  0  0  0  0  0  0  0  0  0  0  0
    5.8750   -2.8820    0.0000 C   0  0  0  0  0  0  0  0  0  0  0  0
    6.5750   -2.8820    1.2120 C   0  0  0  0  0  0  0  0  0  0  0  0
    7.9750   -2.8830    1.2120 C   0  0  0  0  0  0  0  0  0  0  0  0
    8.6600   -2.8830    2.3990 O   0  0  0  0  0  0  0  0  0  0  0  0
    8.9950   -4.1460    2.9800 C   0  0  0  0  0  0  0  0  0  0  0  0
    8.6750   -2.8830    0.0000 C   0  0  0  0  0  0  0  0  0  0  0  0
   10.0450   -2.8830    0.0000 O   0  0  0  0  0  0  0  0  0  0  0  0
   10.7170   -1.6210    0.0000 C   0  0  0  0  0  0  0  0  0  0  0  0
    7.9750   -2.8830   -1.2120 C   0  0  0  0  0  0  0  0  0  0  0  0
    8.6600   -2.8830   -2.3990 O   0  0  0  0  0  0  0  0  0  0  0  0
    8.9960   -1.6200   -2.9800 C   0  0  0  0  0  0  0  0  0  0  0  0
    6.5750   -2.8820   -1.2120 C   0  0  0  0  0  0  0  0  0  0  0  0
  1  2  1  0  0  0  0
  2  3  1  0  0  0  0
  3  4  1  0  0  0  0
  4  5  1  0  0  0  0
  5  6  1  0  0  0  0
  6  7  2  0  0  0  0
  7  8  1  0  0  0  0
  8  9  1  0  0  0  0
  9 10  1  0  0  0  0
  8 11  2  0  0  0  0
 11 12  1  0  0  0  0
 12 13  1  0  0  0  0
 11 14  1  0  0  0  0
 14 15  1  0  0  0  0
 15 16  1  0  0  0  0
 14 17  2  0  0  0  0
 17  6  1  0  0  0  0
M  END
>  <BIO>
19.0000

$$$$
Unnamed
  -MTS-   06200417563D 0   0.00000     0.00000     0

 16 16  0  0  0  0  0  0  0  0  1 V2000
   -0.0010    0.0000    0.0000 S   0  0  0  0  0  0  0  0  0  0  0  0
    1.8190    0.0000    0.0000 C   0  0  0  0  0  0  0  0  0  0  0  0
    2.3280    0.7190    1.2460 C   0  0  0  0  0  0  0  0  0  0  0  0
    2.3280   -1.4410    0.0000 C   0  0  0  0  0  0  0  0  0  0  0  0
    3.8380   -1.4410    0.0000 C   0  0  0  0  0  0  0  0  0  0  0  0
    4.5380   -1.4420    1.2120 C   0  0  0  0  0  0  0  0  0  0  0  0
    5.9380   -1.4420    1.2120 C   0  0  0  0  0  0  0  0  0  0  0  0
    6.6230   -1.4420    2.3990 O   0  0  0  0  0  0  0  0  0  0  0  0
    6.9580   -2.7050    2.9800 C   0  0  0  0  0  0  0  0  0  0  0  0
    6.6380   -1.4420    0.0000 C   0  0  0  0  0  0  0  0  0  0  0  0
    8.0080   -1.4420    0.0000 O   0  0  0  0  0  0  0  0  0  0  0  0
    8.6790   -0.1800    0.0000 C   0  0  0  0  0  0  0  0  0  0  0  0
    5.9380   -1.4420   -1.2130 C   0  0  0  0  0  0  0  0  0  0  0  0
    6.6230   -1.4420   -2.3990 O   0  0  0  0  0  0  0  0  0  0  0  0
    6.9590   -0.1800   -2.9810 C   0  0  0  0  0  0  0  0  0  0  0  0
    4.5380   -1.4420   -1.2130 C   0  0  0  0  0  0  0  0  0  0  0  0
  1  2  1  0  0  0  0
  2  3  1  0  0  0  0
  2  4  1  0  0  0  0
  4  5  1  0  0  0  0
  5  6  2  0  0  0  0
  6  7  1  0  0  0  0
  7  8  1  0  0  0  0
  8  9  1  0  0  0  0
  7 10  2  0  0  0  0
 10 11  1  0  0  0  0
 11 12  1  0  0  0  0
 10 13  1  0  0  0  0
 13 14  1  0  0  0  0
 14 15  1  0  0  0  0
 13 16  2  0  0  0  0
 16  5  1  0  0  0  0
M  END
>  <BIO>
0.0380

$$$$
