Unnamed
  -MTS-   06200417563D 0   0.00000     0.00000     0

 10 10  0  0  0  0  0  0  0  0  1 V2000
   -0.0010    0.0000    0.0000 S   0  0  0  0  0  0  0  0  0  0  0  0
    1.8190    0.0000    0.0000 C   0  0  0  0  0  0  0  0  0  0  0  0
    2.3890    1.2780   -0.6420 C   0  0  0  0  0  0  0  0  0  0  0  0
    1.3230    2.0130   -1.2500 O   0  0  0  0  0  0  0  0  0  0  0  0
    3.0130    2.1300    0.4790 C   0  0  0  0  0  0  0  0  0  0  0  0
    4.1130    2.9000   -0.0120 O   0  0  0  0  0  0  0  0  0  0  0  0
    3.4850    1.0790    1.5020 C   0  0  0  0  0  0  0  0  0  0  0  0
    3.6180    1.6670    2.9060 C   0  0  0  0  0  0  0  0  0  0  0  0
    4.5700    0.9050    3.6530 O   0  0  0  0  0  0  0  0  0  0  0  0
    2.3880    0.0000    1.4310 C   0  0  0  0  0  0  0  0  0  0  0  0
  1  2  1  0  0  0  0
  2  3  1  0  0  0  0
  3  4  1  0  0  0  0
  3  5  1  0  0  0  0
  5  6  1  0  0  0  0
  5  7  1  0  0  0  0
  7  8  1  0  0  0  0
  8  9  1  0  0  0  0
  7 10  1  0  0  0  0
 10  2  1  0  0  0  0
M  END
>  <BIO>
500.00

$$$$
Unnamed
  -MTS-   06200417563D 0   0.00000     0.00000     0

  9  9  0  0  0  0  0  0  0  0  1 V2000
   -0.0010    0.0000    0.0000 S   0  0  0  0  0  0  0  0  0  0  0  0
    1.8190    0.0000    0.0000 C   0  0  0  0  0  0  0  0  0  0  0  0
    2.3890    1.2780   -0.6420 C   0  0  0  0  0  0  0  0  0  0  0  0
    1.3230    2.0130   -1.2500 O   0  0  0  0  0  0  0  0  0  0  0  0
    3.0130    2.1290    0.4800 C   0  0  0  0  0  0  0  0  0  0  0  0
    4.1130    2.9000   -0.0110 O   0  0  0  0  0  0  0  0  0  0  0  0
    3.4850    1.0790    1.5020 C   0  0  0  0  0  0  0  0  0  0  0  0
    3.6180    1.6660    2.9040 C   0  0  0  0  0  0  0  0  0  0  0  0
    2.3880    0.0000    1.4310 C   0  0  0  0  0  0  0  0  0  0  0  0
  1  2  1  0  0  0  0
  2  3  1  0  0  0  0
  3  4  1  0  0  0  0
  3  5  1  0  0  0  0
  5  6  1  0  0  0  0
  5  7  1  0  0  0  0
  7  8  1  0  0  0  0
  7  9  1  0  0  0  0
  9  2  1  0  0  0  0
M  END
>  <BIO>
0.27

$$$$
Unnamed
  -MTS-   06200417563D 0   0.00000     0.00000     0

  9  9  0  0  0  0  0  0  0  0  1 V2000
   -0.0010    0.0000    0.0000 S   0  0  0  0  0  0  0  0  0  0  0  0
    1.8190    0.0000    0.0000 C   0  0  0  0  0  0  0  0  0  0  0  0
    2.3950    0.0000    1.4280 C   0  0  0  0  0  0  0  0  0  0  0  0
    2.4530   -1.3270    1.9590 O   0  0  0  0  0  0  0  0  0  0  0  0
    3.8070    0.5840    1.2410 C   0  0  0  0  0  0  0  0  0  0  0  0
    4.1770    1.3040    2.4200 O   0  0  0  0  0  0  0  0  0  0  0  0
    3.7600    1.5570    0.0490 C   0  0  0  0  0  0  0  0  0  0  0  0
    3.8520    2.9130    0.4940 O   0  0  0  0  0  0  0  0  0  0  0  0
    2.3950    1.2890   -0.6130 C   0  0  0  0  0  0  0  0  0  0  0  0
  1  2  1  0  0  0  0
  2  3  1  0  0  0  0
  3  4  1  0  0  0  0
  3  5  1  0  0  0  0
  5  6  1  0  0  0  0
  5  7  1  0  0  0  0
  7  8  1  0  0  0  0
  7  9  1  0  0  0  0
  9  2  1  0  0  0  0
M  END
>  <BIO>
33.00

$$$$
Unnamed
  -MTS-   06200417563D 0   0.00000     0.00000     0

 10 10  0  0  0  0  0  0  0  0  1 V2000
   -0.0010    0.0000    0.0000 S   0  0  0  0  0  0  0  0  0  0  0  0
    1.8190    0.0000    0.0000 C   0  0  0  0  0  0  0  0  0  0  0  0
    2.3890    1.2780   -0.6420 C   0  0  0  0  0  0  0  0  0  0  0  0
    1.3250    2.2110   -0.8520 O   0  0  0  0  0  0  0  0  0  0  0  0
    3.3950    1.8780    0.3570 C   0  0  0  0  0  0  0  0  0  0  0  0
    4.6190    2.2440   -0.2860 O   0  0  0  0  0  0  0  0  0  0  0  0
    3.5970    0.6960    1.3230 C   0  0  0  0  0  0  0  0  0  0  0  0
    3.9060    1.2180    2.7250 C   0  0  0  0  0  0  0  0  0  0  0  0
    4.6440    0.2310    3.4500 O   0  0  0  0  0  0  0  0  0  0  0  0
    2.3480    0.0000    1.3290 O   0  0  0  0  0  0  0  0  0  0  0  0
  1  2  1  0  0  0  0
  2  3  1  0  0  0  0
  3  4  1  0  0  0  0
  3  5  1  0  0  0  0
  5  6  1  0  0  0  0
  5  7  1  0  0  0  0
  7  8  1  0  0  0  0
  8  9  1  0  0  0  0
  7 10  1  0  0  0  0
 10  2  1  0  0  0  0
M  END
>  <BIO>
200.00

$$$$
Unnamed
  -MTS-   06200417563D 0   0.00000     0.00000     0

 11 11  0  0  0  0  0  0  0  0  1 V2000
   -0.0010    0.0000    0.0000 S   0  0  0  0  0  0  0  0  0  0  0  0
    1.8190    0.0000    0.0000 C   0  0  0  0  0  0  0  0  0  0  0  0
    2.3410    0.0000    1.4490 C   0  0  0  0  0  0  0  0  0  0  0  0
    2.5590   -1.3300    1.9280 O   0  0  0  0  0  0  0  0  0  0  0  0
    3.8870   -1.7860    1.6580 C   0  0  0  0  0  0  0  0  0  0  0  0
    3.6670    0.7660    1.2860 C   0  0  0  0  0  0  0  0  0  0  0  0
    3.7570    1.7660    2.3030 O   0  0  0  0  0  0  0  0  0  0  0  0
    3.6300    1.4500   -0.0930 C   0  0  0  0  0  0  0  0  0  0  0  0
    3.9390    2.9430    0.0090 C   0  0  0  0  0  0  0  0  0  0  0  0
    3.5750    3.4180    1.3080 O   0  0  0  0  0  0  0  0  0  0  0  0
    2.3040    1.2160   -0.5740 O   0  0  0  0  0  0  0  0  0  0  0  0
  1  2  1  0  0  0  0
  2  3  1  0  0  0  0
  3  4  1  0  0  0  0
  4  5  1  0  0  0  0
  3  6  1  0  0  0  0
  6  7  1  0  0  0  0
  6  8  1  0  0  0  0
  8  9  1  0  0  0  0
  9 10  1  0  0  0  0
  8 11  1  0  0  0  0
 11  2  1  0  0  0  0
M  END
>  <BIO>
200.00

$$$$
str5
  -MTS-   06200417563D 0   0.00000     0.00000     0

 11 11  0  0  0  0  0  0  0  0  1 V2000
   -0.0010    0.0000    0.0000 S   0  0  0  0  0  0  0  0  0  0  0  0
    1.8190    0.0000    0.0000 C   0  0  0  0  0  0  0  0  0  0  0  0
    2.3880    1.2800   -0.6410 C   0  0  0  0  0  0  0  0  0  0  0  0
    1.3250    2.2110   -0.8510 O   0  0  0  0  0  0  0  0  0  0  0  0
    3.3950    1.8790    0.3580 C   0  0  0  0  0  0  0  0  0  0  0  0
    4.6180    2.2460   -0.2850 O   0  0  0  0  0  0  0  0  0  0  0  0
    4.5890    3.5930   -0.7630 C   0  0  0  0  0  0  0  0  0  0  0  0
    3.5970    0.6960    1.3230 C   0  0  0  0  0  0  0  0  0  0  0  0
    3.9050    1.2190    2.7260 C   0  0  0  0  0  0  0  0  0  0  0  0
    4.6430    0.2310    3.4510 O   0  0  0  0  0  0  0  0  0  0  0  0
    2.3470    0.0000    1.3290 O   0  0  0  0  0  0  0  0  0  0  0  0
  1  2  1  0  0  0  0
  2  3  1  0  0  0  0
  3  4  1  0  0  0  0
  3  5  1  0  0  0  0
  5  6  1  0  0  0  0
  6  7  1  0  0  0  0
  5  8  1  0  0  0  0
  8  9  1  0  0  0  0
  9 10  1  0  0  0  0
  8 11  1  0  0  0  0
 11  2  1  0  0  0  0
M  END
>  <BIO>
2000.00

$$$$
str6
  -MTS-   06200417563D 0   0.00000     0.00000     0

 11 11  0  0  0  0  0  0  0  0  1 V2000
   -0.0010    0.0000    0.0000 S   0  0  0  0  0  0  0  0  0  0  0  0
    1.8190    0.0000    0.0000 C   0  0  0  0  0  0  0  0  0  0  0  0
    2.3880    1.2790   -0.6420 C   0  0  0  0  0  0  0  0  0  0  0  0
    1.3240    2.2100   -0.8530 O   0  0  0  0  0  0  0  0  0  0  0  0
    3.3940    1.8810    0.3590 C   0  0  0  0  0  0  0  0  0  0  0  0
    4.6940    2.3120   -0.3130 C   0  0  0  0  0  0  0  0  0  0  0  0
    2.8800    3.0400    1.0180 O   0  0  0  0  0  0  0  0  0  0  0  0
    3.5960    0.6980    1.3240 C   0  0  0  0  0  0  0  0  0  0  0  0
    3.9040    1.2200    2.7250 C   0  0  0  0  0  0  0  0  0  0  0  0
    4.6440    0.2330    3.4500 O   0  0  0  0  0  0  0  0  0  0  0  0
    2.3470    0.0000    1.3290 O   0  0  0  0  0  0  0  0  0  0  0  0
  1  2  1  0  0  0  0
  2  3  1  0  0  0  0
  3  4  1  0  0  0  0
  3  5  1  0  0  0  0
  5  6  1  0  0  0  0
  5  7  1  0  0  0  0
  5  8  1  0  0  0  0
  8  9  1  0  0  0  0
  9 10  1  0  0  0  0
  8 11  1  0  0  0  0
 11  2  1  0  0  0  0
M  END
>  <BIO>
51.00

$$$$
str7
  -MTS-   06200417563D 0   0.00000     0.00000     0

 11 11  0  0  0  0  0  0  0  0  1 V2000
   -0.0010    0.0000    0.0000 S   0  0  0  0  0  0  0  0  0  0  0  0
    1.8190    0.0000    0.0000 C   0  0  0  0  0  0  0  0  0  0  0  0
    2.3860    0.0000    1.4320 C   0  0  0  0  0  0  0  0  0  0  0  0
    2.7250   -1.3270    1.8450 O   0  0  0  0  0  0  0  0  0  0  0  0
    3.6430    0.8860    1.3490 C   0  0  0  0  0  0  0  0  0  0  0  0
    4.8140    0.1550    1.7250 O   0  0  0  0  0  0  0  0  0  0  0  0
    3.6930    1.2880   -0.1370 C   0  0  0  0  0  0  0  0  0  0  0  0
    4.5850    0.3170   -0.9070 C   0  0  0  0  0  0  0  0  0  0  0  0
    4.1780    2.7310   -0.2680 C   0  0  0  0  0  0  0  0  0  0  0  0
    3.8780    3.4460    0.9340 O   0  0  0  0  0  0  0  0  0  0  0  0
    2.3460    1.1840   -0.6030 O   0  0  0  0  0  0  0  0  0  0  0  0
  1  2  1  0  0  0  0
  2  3  1  0  0  0  0
  3  4  1  0  0  0  0
  3  5  1  0  0  0  0
  5  6  1  0  0  0  0
  5  7  1  0  0  0  0
  7  8  1  0  0  0  0
  7  9  1  0  0  0  0
  9 10  1  0  0  0  0
  7 11  1  0  0  0  0
 11  2  1  0  0  0  0
M  END
>  <BIO>
1000.00

$$$$
Unnamed
  -MTS-   06200417563D 0   0.00000     0.00000     0

 14 14  0  0  0  0  0  0  0  0  1 V2000
   -0.0010    0.0000    0.0000 S   0  0  0  0  0  0  0  0  0  0  0  0
    1.8190    0.0000    0.0000 C   0  0  0  0  0  0  0  0  0  0  0  0
    2.3890    1.2780   -0.6420 C   0  0  0  0  0  0  0  0  0  0  0  0
    1.3250    2.2110   -0.8520 O   0  0  0  0  0  0  0  0  0  0  0  0
    3.3950    1.8790    0.3570 C   0  0  0  0  0  0  0  0  0  0  0  0
    4.6180    2.2440   -0.2870 O   0  0  0  0  0  0  0  0  0  0  0  0
    3.5970    0.6960    1.3230 C   0  0  0  0  0  0  0  0  0  0  0  0
    3.9060    1.2180    2.7250 C   0  0  0  0  0  0  0  0  0  0  0  0
    4.6440    0.2310    3.4500 O   0  0  0  0  0  0  0  0  0  0  0  0
    4.9950    0.7100    4.9080 S   0  0  0  0  0  0  0  0  0  0  0  0
    3.7880    0.9790    5.6250 O   0  0  0  0  0  0  0  0  0  0  0  0
    5.7860    1.9000    4.8420 O   0  0  0  0  0  0  0  0  0  0  0  0
    5.8960   -0.5440    5.7330 N   0  0  0  0  0  0  0  0  0  0  0  0
    2.3480    0.0000    1.3290 O   0  0  0  0  0  0  0  0  0  0  0  0
  1  2  1  0  0  0  0
  2  3  1  0  0  0  0
  3  4  1  0  0  0  0
  3  5  1  0  0  0  0
  5  6  1  0  0  0  0
  5  7  1  0  0  0  0
  7  8  1  0  0  0  0
  8  9  1  0  0  0  0
  9 10  1  0  0  0  0
 10 11  2  0  0  0  0
 10 12  2  0  0  0  0
 10 13  1  0  0  0  0
  7 14  1  0  0  0  0
 14  2  1  0  0  0  0
M  END
>  <BIO>
1.03

$$$$
Unnamed
  -MTS-   06200417563D 0   0.00000     0.00000     0

 13 13  0  0  0  0  0  0  0  0  1 V2000
   -0.0010    0.0000    0.0000 S   0  0  0  0  0  0  0  0  0  0  0  0
    1.8190    0.0000    0.0000 C   0  0  0  0  0  0  0  0  0  0  0  0
    2.3890    1.2780   -0.6420 C   0  0  0  0  0  0  0  0  0  0  0  0
    1.3250    2.2110   -0.8520 O   0  0  0  0  0  0  0  0  0  0  0  0
    3.3950    1.8780    0.3570 C   0  0  0  0  0  0  0  0  0  0  0  0
    4.6190    2.2440   -0.2870 O   0  0  0  0  0  0  0  0  0  0  0  0
    3.5970    0.6960    1.3230 C   0  0  0  0  0  0  0  0  0  0  0  0
    3.9020    1.2120    2.7080 C   0  0  0  0  0  0  0  0  0  0  0  0
    3.5190    2.3310    3.0460 O   0  0  0  0  0  0  0  0  0  0  0  0
    4.5850    0.4570    3.5640 N   0  0  0  0  0  0  0  0  0  0  0  0
    4.8820    0.9590    4.9130 C   0  0  0  0  0  0  0  0  0  0  0  0
    5.6700   -0.0940    5.6860 C   0  0  0  0  0  0  0  0  0  0  0  0
    2.3480   -0.0010    1.3280 O   0  0  0  0  0  0  0  0  0  0  0  0
  1  2  1  0  0  0  0
  2  3  1  0  0  0  0
  3  4  1  0  0  0  0
  3  5  1  0  0  0  0
  5  6  1  0  0  0  0
  5  7  1  0  0  0  0
  7  8  1  0  0  0  0
  8  9  2  0  0  0  0
  8 10  1  0  0  0  0
 10 11  1  0  0  0  0
 11 12  1  0  0  0  0
  7 13  1  0  0  0  0
 13  2  1  0  0  0  0
M  END
>  <BIO>
0.06

$$$$
