Unnamed
  -MTS-   06200418043D 0   0.00000     0.00000     0

 15 15  0  0  0  0  0  0  0  0  1 V2000
    0.0180   -0.0030    0.0000 S   0  0  0  0  0  0  0  0  0  0  0  0
    1.7880    0.0070    0.0000 C   0  0  0  0  0  0  0  0  0  0  0  0
    2.4880    0.0120    1.2130 C   0  0  0  0  0  0  0  0  0  0  0  0
    3.8880    0.0200    1.2130 C   0  0  0  0  0  0  0  0  0  0  0  0
    4.6430    0.0250    2.5200 C   0  0  0  0  0  0  0  0  0  0  0  0
    4.8720   -1.2280    2.9040 F   0  0  0  0  0  0  0  0  0  0  0  0
    3.9200    0.6470    3.4470 F   0  0  0  0  0  0  0  0  0  0  0  0
    5.8010    0.6590    2.3610 F   0  0  0  0  0  0  0  0  0  0  0  0
    4.5880    0.0240    0.0000 C   0  0  0  0  0  0  0  0  0  0  0  0
    3.8880    0.0200   -1.2120 C   0  0  0  0  0  0  0  0  0  0  0  0
    4.6430    0.0240   -2.5200 C   0  0  0  0  0  0  0  0  0  0  0  0
    4.8570    1.2800   -2.9040 F   0  0  0  0  0  0  0  0  0  0  0  0
    3.9280   -0.6070   -3.4470 F   0  0  0  0  0  0  0  0  0  0  0  0
    5.8090   -0.5950   -2.3610 F   0  0  0  0  0  0  0  0  0  0  0  0
    2.4880    0.0120   -1.2120 C   0  0  0  0  0  0  0  0  0  0  0  0
  1  2  1  0  0  0  0
  2  3  2  0  0  0  0
  3  4  1  0  0  0  0
  4  5  1  0  0  0  0
  5  6  1  0  0  0  0
  5  7  1  0  0  0  0
  5  8  1  0  0  0  0
  4  9  2  0  0  0  0
  9 10  1  0  0  0  0
 10 11  1  0  0  0  0
 11 12  1  0  0  0  0
 11 13  1  0  0  0  0
 11 14  1  0  0  0  0
 10 15  2  0  0  0  0
 15  2  1  0  0  0  0
M  END
>  <BIO>
0.95

$$$$
Unnamed
  -MTS-   06200418043D 0   0.00000     0.00000     0

 11 11  0  0  0  0  0  0  0  0  1 V2000
    0.0180   -0.0030    0.0000 S   0  0  0  0  0  0  0  0  0  0  0  0
    1.7880    0.0070    0.0000 C   0  0  0  0  0  0  0  0  0  0  0  0
    2.4880    0.0120    1.2130 C   0  0  0  0  0  0  0  0  0  0  0  0
    3.8880    0.0200    1.2120 C   0  0  0  0  0  0  0  0  0  0  0  0
    4.6430    0.0250    2.5200 C   0  0  0  0  0  0  0  0  0  0  0  0
    4.8720   -1.2280    2.9040 F   0  0  0  0  0  0  0  0  0  0  0  0
    3.9210    0.6470    3.4470 F   0  0  0  0  0  0  0  0  0  0  0  0
    5.8010    0.6590    2.3610 F   0  0  0  0  0  0  0  0  0  0  0  0
    4.5880    0.0240    0.0000 C   0  0  0  0  0  0  0  0  0  0  0  0
    3.8880    0.0200   -1.2120 C   0  0  0  0  0  0  0  0  0  0  0  0
    2.4880    0.0120   -1.2120 C   0  0  0  0  0  0  0  0  0  0  0  0
  1  2  1  0  0  0  0
  2  3  2  0  0  0  0
  3  4  1  0  0  0  0
  4  5  1  0  0  0  0
  5  6  1  0  0  0  0
  5  7  1  0  0  0  0
  5  8  1  0  0  0  0
  4  9  2  0  0  0  0
  9 10  1  0  0  0  0
 10 11  2  0  0  0  0
 11  2  1  0  0  0  0
M  END
>  <BIO>
57.00

$$$$
Unnamed
  -MTS-   06200418043D 0   0.00000     0.00000     0

  9  9  0  0  0  0  0  0  0  0  1 V2000
    0.0180   -0.0030    0.0000 S   0  0  0  0  0  0  0  0  0  0  0  0
    1.7880    0.0070    0.0000 C   0  0  0  0  0  0  0  0  0  0  0  0
    2.4880    0.0120    1.2120 C   0  0  0  0  0  0  0  0  0  0  0  0
    3.8880    0.0200    1.2120 C   0  0  0  0  0  0  0  0  0  0  0  0
    4.6430    0.0240    2.5200 C   0  0  0  0  0  0  0  0  0  0  0  0
    4.5880    0.0240    0.0000 C   0  0  0  0  0  0  0  0  0  0  0  0
    3.8880    0.0200   -1.2130 C   0  0  0  0  0  0  0  0  0  0  0  0
    4.6430    0.0240   -2.5200 C   0  0  0  0  0  0  0  0  0  0  0  0
    2.4880    0.0110   -1.2120 C   0  0  0  0  0  0  0  0  0  0  0  0
  1  2  1  0  0  0  0
  2  3  2  0  0  0  0
  3  4  1  0  0  0  0
  4  5  1  0  0  0  0
  4  6  2  0  0  0  0
  6  7  1  0  0  0  0
  7  8  1  0  0  0  0
  7  9  2  0  0  0  0
  9  2  1  0  0  0  0
M  END
>  <BIO>
9.00

$$$$
Unnamed
  -MTS-   06200418043D 0   0.00000     0.00000     0

  9  9  0  0  0  0  0  0  0  0  1 V2000
    0.0180   -0.0030    0.0000 S   0  0  0  0  0  0  0  0  0  0  0  0
    1.7880    0.0070    0.0000 C   0  0  0  0  0  0  0  0  0  0  0  0
    2.4880    0.0120    1.2120 C   0  0  0  0  0  0  0  0  0  0  0  0
    3.8880    0.0200    1.2120 C   0  0  0  0  0  0  0  0  0  0  0  0
    4.7380    0.0250    2.6850 Cl  0  0  0  0  0  0  0  0  0  0  0  0
    4.5880    0.0240    0.0000 C   0  0  0  0  0  0  0  0  0  0  0  0
    3.8880    0.0200   -1.2120 C   0  0  0  0  0  0  0  0  0  0  0  0
    4.7380    0.0250   -2.6850 Cl  0  0  0  0  0  0  0  0  0  0  0  0
    2.4880    0.0110   -1.2120 C   0  0  0  0  0  0  0  0  0  0  0  0
  1  2  1  0  0  0  0
  2  3  2  0  0  0  0
  3  4  1  0  0  0  0
  4  5  1  0  0  0  0
  4  6  2  0  0  0  0
  6  7  1  0  0  0  0
  7  8  1  0  0  0  0
  7  9  2  0  0  0  0
  9  2  1  0  0  0  0
M  END
>  <BIO>
4.60

$$$$
Unnamed
  -MTS-   06200418043D 0   0.00000     0.00000     0

  7  7  0  0  0  0  0  0  0  0  1 V2000
    0.0180   -0.0030    0.0000 S   0  0  0  0  0  0  0  0  0  0  0  0
    1.7880    0.0070    0.0000 C   0  0  0  0  0  0  0  0  0  0  0  0
    2.4880    0.0120    1.2120 C   0  0  0  0  0  0  0  0  0  0  0  0
    3.8880    0.0200    1.2120 C   0  0  0  0  0  0  0  0  0  0  0  0
    4.5880    0.0240    0.0000 C   0  0  0  0  0  0  0  0  0  0  0  0
    3.8880    0.0200   -1.2120 C   0  0  0  0  0  0  0  0  0  0  0  0
    2.4880    0.0120   -1.2120 C   0  0  0  0  0  0  0  0  0  0  0  0
  1  2  1  0  0  0  0
  2  3  2  0  0  0  0
  3  4  1  0  0  0  0
  4  5  2  0  0  0  0
  5  6  1  0  0  0  0
  6  7  2  0  0  0  0
  7  2  1  0  0  0  0
M  END
>  <BIO>
1100.00

$$$$
