Unnamed
  -MTS-   06200418053D 0   0.00000     0.00000     0

 12 12  0  0  0  0  0  0  0  0  1 V2000
    0.0180   -0.0030    0.0000 S   0  0  0  0  0  0  0  0  0  0  0  0
    1.7880    0.0070    0.0000 C   0  0  0  0  0  0  0  0  0  0  0  0
    2.4880    0.0120    1.2120 C   0  0  0  0  0  0  0  0  0  0  0  0
    1.8030    0.0080    2.3990 O   0  0  0  0  0  0  0  0  0  0  0  0
    1.4750   -1.2570    2.9800 C   0  0  0  0  0  0  0  0  0  0  0  0
    3.8880    0.0200    1.2120 C   0  0  0  0  0  0  0  0  0  0  0  0
    4.5880    0.0240    0.0000 C   0  0  0  0  0  0  0  0  0  0  0  0
    6.0680    0.0330    0.0000 C   0  0  0  0  0  0  0  0  0  0  0  0
    6.6890   -1.0290    0.0000 O   0  0  0  0  0  0  0  0  0  0  0  0
    6.8150    1.3450    0.0000 C   0  0  0  0  0  0  0  0  0  0  0  0
    3.8880    0.0200   -1.2120 C   0  0  0  0  0  0  0  0  0  0  0  0
    2.4880    0.0110   -1.2120 C   0  0  0  0  0  0  0  0  0  0  0  0
  1  2  1  0  0  0  0
  2  3  2  0  0  0  0
  3  4  1  0  0  0  0
  4  5  1  0  0  0  0
  3  6  1  0  0  0  0
  6  7  2  0  0  0  0
  7  8  1  0  0  0  0
  8  9  2  0  0  0  0
  8 10  1  0  0  0  0
  7 11  1  0  0  0  0
 11 12  2  0  0  0  0
 12  2  1  0  0  0  0
M  END
>  <BIO>
0.09

$$$$
Unnamed
  -MTS-   06200418053D 0   0.00000     0.00000     0

 11 11  0  0  0  0  0  0  0  0  1 V2000
    0.0180   -0.0030    0.0000 S   0  0  0  0  0  0  0  0  0  0  0  0
    1.7880    0.0070    0.0000 C   0  0  0  0  0  0  0  0  0  0  0  0
    2.4880    0.0120    1.2120 C   0  0  0  0  0  0  0  0  0  0  0  0
    1.8030    0.0070    2.3990 O   0  0  0  0  0  0  0  0  0  0  0  0
    3.8880    0.0200    1.2120 C   0  0  0  0  0  0  0  0  0  0  0  0
    4.5880    0.0240    0.0000 C   0  0  0  0  0  0  0  0  0  0  0  0
    6.0680    0.0330    0.0000 C   0  0  0  0  0  0  0  0  0  0  0  0
    6.6890   -1.0280    0.0000 O   0  0  0  0  0  0  0  0  0  0  0  0
    6.8150    1.3450    0.0000 C   0  0  0  0  0  0  0  0  0  0  0  0
    3.8880    0.0200   -1.2120 C   0  0  0  0  0  0  0  0  0  0  0  0
    2.4880    0.0120   -1.2120 C   0  0  0  0  0  0  0  0  0  0  0  0
  1  2  1  0  0  0  0
  2  3  2  0  0  0  0
  3  4  1  0  0  0  0
  3  5  1  0  0  0  0
  5  6  2  0  0  0  0
  6  7  1  0  0  0  0
  7  8  2  0  0  0  0
  7  9  1  0  0  0  0
  6 10  1  0  0  0  0
 10 11  2  0  0  0  0
 11  2  1  0  0  0  0
M  END
>  <BIO>
0.05

$$$$
Unnamed
  -MTS-   06200418053D 0   0.00000     0.00000     0

 10 10  0  0  0  0  0  0  0  0  1 V2000
    0.0180   -0.0030    0.0000 S   0  0  0  0  0  0  0  0  0  0  0  0
    1.7880    0.0070    0.0000 C   0  0  0  0  0  0  0  0  0  0  0  0
    2.4880    0.0110    1.2120 C   0  0  0  0  0  0  0  0  0  0  0  0
    3.8880    0.0200    1.2120 C   0  0  0  0  0  0  0  0  0  0  0  0
    4.5880    0.0240    0.0000 C   0  0  0  0  0  0  0  0  0  0  0  0
    6.0680    0.0330    0.0000 C   0  0  0  0  0  0  0  0  0  0  0  0
    6.6890   -1.0290    0.0000 O   0  0  0  0  0  0  0  0  0  0  0  0
    6.8150    1.3450    0.0000 C   0  0  0  0  0  0  0  0  0  0  0  0
    3.8880    0.0200   -1.2130 C   0  0  0  0  0  0  0  0  0  0  0  0
    2.4880    0.0120   -1.2120 C   0  0  0  0  0  0  0  0  0  0  0  0
  1  2  1  0  0  0  0
  2  3  2  0  0  0  0
  3  4  1  0  0  0  0
  4  5  2  0  0  0  0
  5  6  1  0  0  0  0
  6  7  2  0  0  0  0
  6  8  1  0  0  0  0
  5  9  1  0  0  0  0
  9 10  2  0  0  0  0
 10  2  1  0  0  0  0
M  END
>  <BIO>
0.84

$$$$
Unnamed
  -MTS-   06200418053D 0   0.00000     0.00000     0

 11 11  0  0  0  0  0  0  0  0  1 V2000
    0.0180   -0.0030    0.0000 S   0  0  0  0  0  0  0  0  0  0  0  0
    1.7880    0.0070    0.0000 C   0  0  0  0  0  0  0  0  0  0  0  0
    2.4880    0.0120    1.2120 C   0  0  0  0  0  0  0  0  0  0  0  0
    1.7330    0.0070    2.5200 C   0  0  0  0  0  0  0  0  0  0  0  0
    3.8880    0.0200    1.2120 C   0  0  0  0  0  0  0  0  0  0  0  0
    4.5880    0.0240    0.0000 C   0  0  0  0  0  0  0  0  0  0  0  0
    6.0680    0.0330    0.0000 C   0  0  0  0  0  0  0  0  0  0  0  0
    6.6890   -1.0290    0.0000 O   0  0  0  0  0  0  0  0  0  0  0  0
    6.8150    1.3450    0.0000 C   0  0  0  0  0  0  0  0  0  0  0  0
    3.8880    0.0200   -1.2120 C   0  0  0  0  0  0  0  0  0  0  0  0
    2.4880    0.0110   -1.2120 C   0  0  0  0  0  0  0  0  0  0  0  0
  1  2  1  0  0  0  0
  2  3  2  0  0  0  0
  3  4  1  0  0  0  0
  3  5  1  0  0  0  0
  5  6  2  0  0  0  0
  6  7  1  0  0  0  0
  7  8  2  0  0  0  0
  7  9  1  0  0  0  0
  6 10  1  0  0  0  0
 10 11  2  0  0  0  0
 11  2  1  0  0  0  0
M  END
>  <BIO>
0.25

$$$$
Unnamed
  -MTS-   06200418053D 0   0.00000     0.00000     0

 12 12  0  0  0  0  0  0  0  0  1 V2000
    0.0180   -0.0030    0.0000 S   0  0  0  0  0  0  0  0  0  0  0  0
    1.7880    0.0070    0.0000 C   0  0  0  0  0  0  0  0  0  0  0  0
    2.4880    0.0120    1.2120 C   0  0  0  0  0  0  0  0  0  0  0  0
    1.6030    0.0060    2.7450 S   0  0  0  0  0  0  0  0  0  0  0  0
    1.3100   -1.7110    3.2710 C   0  0  0  0  0  0  0  0  0  0  0  0
    3.8880    0.0200    1.2120 C   0  0  0  0  0  0  0  0  0  0  0  0
    4.5880    0.0240    0.0000 C   0  0  0  0  0  0  0  0  0  0  0  0
    6.0680    0.0330    0.0000 C   0  0  0  0  0  0  0  0  0  0  0  0
    6.6890   -1.0290    0.0000 O   0  0  0  0  0  0  0  0  0  0  0  0
    6.8150    1.3450    0.0000 C   0  0  0  0  0  0  0  0  0  0  0  0
    3.8880    0.0200   -1.2120 C   0  0  0  0  0  0  0  0  0  0  0  0
    2.4880    0.0110   -1.2120 C   0  0  0  0  0  0  0  0  0  0  0  0
  1  2  1  0  0  0  0
  2  3  2  0  0  0  0
  3  4  1  0  0  0  0
  4  5  1  0  0  0  0
  3  6  1  0  0  0  0
  6  7  2  0  0  0  0
  7  8  1  0  0  0  0
  8  9  2  0  0  0  0
  8 10  1  0  0  0  0
  7 11  1  0  0  0  0
 11 12  2  0  0  0  0
 12  2  1  0  0  0  0
M  END
>  <BIO>
20.00

$$$$
Unnamed
  -MTS-   06200418053D 0   0.00000     0.00000     0

 12 12  0  0  0  0  0  0  0  0  1 V2000
    0.0180   -0.0030    0.0000 S   0  0  0  0  0  0  0  0  0  0  0  0
    1.7880    0.0070    0.0000 C   0  0  0  0  0  0  0  0  0  0  0  0
    2.4880    0.0120    1.2120 C   0  0  0  0  0  0  0  0  0  0  0  0
    1.7810    0.0070    2.4380 N   0  0  0  0  0  0  0  0  0  0  0  0
    1.5440   -1.3800    2.8620 C   0  0  0  0  0  0  0  0  0  0  0  0
    3.8880    0.0200    1.2120 C   0  0  0  0  0  0  0  0  0  0  0  0
    4.5880    0.0240    0.0000 C   0  0  0  0  0  0  0  0  0  0  0  0
    6.0680    0.0330    0.0000 C   0  0  0  0  0  0  0  0  0  0  0  0
    6.6890   -1.0280    0.0000 O   0  0  0  0  0  0  0  0  0  0  0  0
    6.8150    1.3450    0.0000 C   0  0  0  0  0  0  0  0  0  0  0  0
    3.8880    0.0200   -1.2120 C   0  0  0  0  0  0  0  0  0  0  0  0
    2.4880    0.0120   -1.2120 C   0  0  0  0  0  0  0  0  0  0  0  0
  1  2  1  0  0  0  0
  2  3  2  0  0  0  0
  3  4  1  0  0  0  0
  4  5  1  0  0  0  0
  3  6  1  0  0  0  0
  6  7  2  0  0  0  0
  7  8  1  0  0  0  0
  8  9  2  0  0  0  0
  8 10  1  0  0  0  0
  7 11  1  0  0  0  0
 11 12  2  0  0  0  0
 12  2  1  0  0  0  0
M  END
>  <BIO>
0.15

$$$$
Unnamed
  -MTS-   06200418053D 0   0.00000     0.00000     0

 13 13  0  0  0  0  0  0  0  0  1 V2000
    0.0180   -0.0030    0.0000 S   0  0  0  0  0  0  0  0  0  0  0  0
    1.7880    0.0070    0.0000 C   0  0  0  0  0  0  0  0  0  0  0  0
    2.4880    0.0120    1.2120 C   0  0  0  0  0  0  0  0  0  0  0  0
    1.7810    0.0070    2.4380 N   0  0  0  0  0  0  0  0  0  0  0  0
    1.5440   -1.3800    2.8620 C   0  0  0  0  0  0  0  0  0  0  0  0
    2.5710    0.7050    3.4620 C   0  0  0  0  0  0  0  0  0  0  0  0
    3.8880    0.0200    1.2120 C   0  0  0  0  0  0  0  0  0  0  0  0
    4.5880    0.0240    0.0000 C   0  0  0  0  0  0  0  0  0  0  0  0
    6.0680    0.0330    0.0000 C   0  0  0  0  0  0  0  0  0  0  0  0
    6.6900   -1.0280    0.0000 O   0  0  0  0  0  0  0  0  0  0  0  0
    6.8150    1.3460    0.0000 C   0  0  0  0  0  0  0  0  0  0  0  0
    3.8880    0.0200   -1.2120 C   0  0  0  0  0  0  0  0  0  0  0  0
    2.4880    0.0120   -1.2120 C   0  0  0  0  0  0  0  0  0  0  0  0
  1  2  1  0  0  0  0
  2  3  2  0  0  0  0
  3  4  1  0  0  0  0
  4  5  1  0  0  0  0
  4  6  1  0  0  0  0
  3  7  1  0  0  0  0
  7  8  2  0  0  0  0
  8  9  1  0  0  0  0
  9 10  2  0  0  0  0
  9 11  1  0  0  0  0
  8 12  1  0  0  0  0
 12 13  2  0  0  0  0
 13  2  1  0  0  0  0
M  END
>  <BIO>
0.15

$$$$
Unnamed
  -MTS-   06200418053D 0   0.00000     0.00000     0

 14 14  0  0  0  0  0  0  0  0  1 V2000
    0.0180   -0.0030    0.0000 S   0  0  0  0  0  0  0  0  0  0  0  0
    1.7880    0.0070    0.0000 C   0  0  0  0  0  0  0  0  0  0  0  0
    2.4880    0.0120    1.2120 C   0  0  0  0  0  0  0  0  0  0  0  0
    1.7810    0.0070    2.4380 N   0  0  0  0  0  0  0  0  0  0  0  0
    1.4550   -1.1460    3.0140 C   0  0  0  0  0  0  0  0  0  0  0  0
    1.7690   -2.2100    2.4810 O   0  0  0  0  0  0  0  0  0  0  0  0
    0.7000   -1.1510    4.3220 C   0  0  0  0  0  0  0  0  0  0  0  0
    3.8880    0.0200    1.2120 C   0  0  0  0  0  0  0  0  0  0  0  0
    4.5880    0.0240    0.0000 C   0  0  0  0  0  0  0  0  0  0  0  0
    6.0680    0.0330    0.0000 C   0  0  0  0  0  0  0  0  0  0  0  0
    6.6890   -1.0290    0.0000 O   0  0  0  0  0  0  0  0  0  0  0  0
    6.8150    1.3450    0.0000 C   0  0  0  0  0  0  0  0  0  0  0  0
    3.8880    0.0200   -1.2120 C   0  0  0  0  0  0  0  0  0  0  0  0
    2.4880    0.0110   -1.2120 C   0  0  0  0  0  0  0  0  0  0  0  0
  1  2  1  0  0  0  0
  2  3  2  0  0  0  0
  3  4  1  0  0  0  0
  4  5  1  0  0  0  0
  5  6  2  0  0  0  0
  5  7  1  0  0  0  0
  3  8  1  0  0  0  0
  8  9  2  0  0  0  0
  9 10  1  0  0  0  0
 10 11  2  0  0  0  0
 10 12  1  0  0  0  0
  9 13  1  0  0  0  0
 13 14  2  0  0  0  0
 14  2  1  0  0  0  0
M  END
>  <BIO>
0.05

$$$$
Unnamed
  -MTS-   06200418053D 0   0.00000     0.00000     0

 13 13  0  0  0  0  0  0  0  0  1 V2000
    0.0180   -0.0030    0.0000 S   0  0  0  0  0  0  0  0  0  0  0  0
    1.7880    0.0070    0.0000 C   0  0  0  0  0  0  0  0  0  0  0  0
    2.4880    0.0120    1.2120 C   0  0  0  0  0  0  0  0  0  0  0  0
    1.8030    0.0080    2.3990 O   0  0  0  0  0  0  0  0  0  0  0  0
    1.4750   -1.2570    2.9800 C   0  0  0  0  0  0  0  0  0  0  0  0
    0.7190   -1.0350    4.2870 C   0  0  0  0  0  0  0  0  0  0  0  0
    3.8880    0.0200    1.2120 C   0  0  0  0  0  0  0  0  0  0  0  0
    4.5880    0.0240    0.0000 C   0  0  0  0  0  0  0  0  0  0  0  0
    6.0680    0.0330    0.0000 C   0  0  0  0  0  0  0  0  0  0  0  0
    6.6890   -1.0290    0.0000 O   0  0  0  0  0  0  0  0  0  0  0  0
    6.8150    1.3450    0.0000 C   0  0  0  0  0  0  0  0  0  0  0  0
    3.8880    0.0200   -1.2130 C   0  0  0  0  0  0  0  0  0  0  0  0
    2.4880    0.0110   -1.2120 C   0  0  0  0  0  0  0  0  0  0  0  0
  1  2  1  0  0  0  0
  2  3  2  0  0  0  0
  3  4  1  0  0  0  0
  4  5  1  0  0  0  0
  5  6  1  0  0  0  0
  3  7  1  0  0  0  0
  7  8  2  0  0  0  0
  8  9  1  0  0  0  0
  9 10  2  0  0  0  0
  9 11  1  0  0  0  0
  8 12  1  0  0  0  0
 12 13  2  0  0  0  0
 13  2  1  0  0  0  0
M  END
>  <BIO>
0.56

$$$$
Unnamed
  -MTS-   06200418053D 0   0.00000     0.00000     0

 14 14  0  0  0  0  0  0  0  0  1 V2000
    0.0180   -0.0030    0.0000 S   0  0  0  0  0  0  0  0  0  0  0  0
    1.7880    0.0070    0.0000 C   0  0  0  0  0  0  0  0  0  0  0  0
    2.4880    0.0120   -1.2120 C   0  0  0  0  0  0  0  0  0  0  0  0
    1.8030    0.0070   -2.3990 O   0  0  0  0  0  0  0  0  0  0  0  0
    1.4600    1.2680   -2.9800 C   0  0  0  0  0  0  0  0  0  0  0  0
    3.8880    0.0200   -1.2120 C   0  0  0  0  0  0  0  0  0  0  0  0
    4.5880    0.0240    0.0000 C   0  0  0  0  0  0  0  0  0  0  0  0
    6.0680    0.0330    0.0000 C   0  0  0  0  0  0  0  0  0  0  0  0
    6.6890   -1.0290    0.0000 O   0  0  0  0  0  0  0  0  0  0  0  0
    6.8150    1.3450    0.0000 C   0  0  0  0  0  0  0  0  0  0  0  0
    3.8880    0.0200    1.2120 C   0  0  0  0  0  0  0  0  0  0  0  0
    2.4880    0.0110    1.2120 C   0  0  0  0  0  0  0  0  0  0  0  0
    1.8030    0.0070    2.3990 O   0  0  0  0  0  0  0  0  0  0  0  0
    1.4750   -1.2570    2.9800 C   0  0  0  0  0  0  0  0  0  0  0  0
  1  2  1  0  0  0  0
  2  3  2  0  0  0  0
  3  4  1  0  0  0  0
  4  5  1  0  0  0  0
  3  6  1  0  0  0  0
  6  7  2  0  0  0  0
  7  8  1  0  0  0  0
  8  9  2  0  0  0  0
  8 10  1  0  0  0  0
  7 11  1  0  0  0  0
 11 12  2  0  0  0  0
 12  2  1  0  0  0  0
 12 13  1  0  0  0  0
 13 14  1  0  0  0  0
M  END
>  <BIO>
0.72

$$$$
Unnamed
  -MTS-   06200418053D 0   0.00000     0.00000     0

 12 12  0  0  0  0  0  0  0  0  1 V2000
    0.0180   -0.0030    0.0000 S   0  0  0  0  0  0  0  0  0  0  0  0
    1.7880    0.0070    0.0000 C   0  0  0  0  0  0  0  0  0  0  0  0
    2.4880    0.0120    1.2120 C   0  0  0  0  0  0  0  0  0  0  0  0
    1.8030    0.0080    2.3990 O   0  0  0  0  0  0  0  0  0  0  0  0
    1.4750   -1.2570    2.9800 C   0  0  0  0  0  0  0  0  0  0  0  0
    3.8880    0.0200    1.2120 C   0  0  0  0  0  0  0  0  0  0  0  0
    4.5880    0.0240    0.0000 C   0  0  0  0  0  0  0  0  0  0  0  0
    6.0980    0.0330    0.0000 C   0  0  0  0  0  0  0  0  0  0  0  0
    6.5790   -0.6380    1.1680 O   0  0  0  0  0  0  0  0  0  0  0  0
    6.5980    1.4750    0.0000 C   0  0  0  0  0  0  0  0  0  0  0  0
    3.8880    0.0200   -1.2120 C   0  0  0  0  0  0  0  0  0  0  0  0
    2.4880    0.0110   -1.2120 C   0  0  0  0  0  0  0  0  0  0  0  0
  1  2  1  0  0  0  0
  2  3  2  0  0  0  0
  3  4  1  0  0  0  0
  4  5  1  0  0  0  0
  3  6  1  0  0  0  0
  6  7  2  0  0  0  0
  7  8  1  0  0  0  0
  8  9  1  0  0  0  0
  8 10  1  0  0  0  0
  7 11  1  0  0  0  0
 11 12  2  0  0  0  0
 12  2  1  0  0  0  0
M  END
>  <BIO>
0.12

$$$$
Unnamed
  -MTS-   06200418053D 0   0.00000     0.00000     0

 11 11  0  0  0  0  0  0  0  0  1 V2000
    0.0180   -0.0030    0.0000 S   0  0  0  0  0  0  0  0  0  0  0  0
    1.7880    0.0070    0.0000 C   0  0  0  0  0  0  0  0  0  0  0  0
    2.4880    0.0110    1.2120 C   0  0  0  0  0  0  0  0  0  0  0  0
    1.8030    0.0070    2.3990 O   0  0  0  0  0  0  0  0  0  0  0  0
    3.8880    0.0200    1.2120 C   0  0  0  0  0  0  0  0  0  0  0  0
    4.5880    0.0240    0.0000 C   0  0  0  0  0  0  0  0  0  0  0  0
    6.0980    0.0330    0.0000 C   0  0  0  0  0  0  0  0  0  0  0  0
    6.5790   -0.6380    1.1680 O   0  0  0  0  0  0  0  0  0  0  0  0
    6.5980    1.4750    0.0000 C   0  0  0  0  0  0  0  0  0  0  0  0
    3.8880    0.0200   -1.2120 C   0  0  0  0  0  0  0  0  0  0  0  0
    2.4880    0.0120   -1.2120 C   0  0  0  0  0  0  0  0  0  0  0  0
  1  2  1  0  0  0  0
  2  3  2  0  0  0  0
  3  4  1  0  0  0  0
  3  5  1  0  0  0  0
  5  6  2  0  0  0  0
  6  7  1  0  0  0  0
  7  8  1  0  0  0  0
  7  9  1  0  0  0  0
  6 10  1  0  0  0  0
 10 11  2  0  0  0  0
 11  2  1  0  0  0  0
M  END
>  <BIO>
0.06

$$$$
Unnamed
  -MTS-   06200418053D 0   0.00000     0.00000     0

 13 13  0  0  0  0  0  0  0  0  1 V2000
    0.0180   -0.0030    0.0000 S   0  0  0  0  0  0  0  0  0  0  0  0
    1.7880    0.0070    0.0000 C   0  0  0  0  0  0  0  0  0  0  0  0
    2.4880    0.0120    1.2120 C   0  0  0  0  0  0  0  0  0  0  0  0
    1.8030    0.0070    2.3990 O   0  0  0  0  0  0  0  0  0  0  0  0
    1.4750   -1.2570    2.9800 C   0  0  0  0  0  0  0  0  0  0  0  0
    3.8880    0.0200    1.2120 C   0  0  0  0  0  0  0  0  0  0  0  0
    4.5880    0.0240    0.0000 C   0  0  0  0  0  0  0  0  0  0  0  0
    6.0680    0.0330    0.0000 C   0  0  0  0  0  0  0  0  0  0  0  0
    6.6890   -1.0280    0.0000 O   0  0  0  0  0  0  0  0  0  0  0  0
    6.8150    1.3450    0.0000 C   0  0  0  0  0  0  0  0  0  0  0  0
    8.3170    1.0750    0.0000 C   0  0  0  0  0  0  0  0  0  0  0  0
    3.8880    0.0200   -1.2130 C   0  0  0  0  0  0  0  0  0  0  0  0
    2.4880    0.0120   -1.2120 C   0  0  0  0  0  0  0  0  0  0  0  0
  1  2  1  0  0  0  0
  2  3  2  0  0  0  0
  3  4  1  0  0  0  0
  4  5  1  0  0  0  0
  3  6  1  0  0  0  0
  6  7  2  0  0  0  0
  7  8  1  0  0  0  0
  8  9  2  0  0  0  0
  8 10  1  0  0  0  0
 10 11  1  0  0  0  0
  7 12  1  0  0  0  0
 12 13  2  0  0  0  0
 13  2  1  0  0  0  0
M  END
>  <BIO>
0.77

$$$$
Unnamed
  -MTS-   06200418053D 0   0.00000     0.00000     0

 15 15  0  0  0  0  0  0  0  0  1 V2000
    0.0180   -0.0030    0.0000 S   0  0  0  0  0  0  0  0  0  0  0  0
    1.7880    0.0070    0.0000 C   0  0  0  0  0  0  0  0  0  0  0  0
    2.4880    0.0120    1.2120 C   0  0  0  0  0  0  0  0  0  0  0  0
    1.8030    0.0070    2.3990 O   0  0  0  0  0  0  0  0  0  0  0  0
    1.4750   -1.2570    2.9800 C   0  0  0  0  0  0  0  0  0  0  0  0
    3.8880    0.0200    1.2130 C   0  0  0  0  0  0  0  0  0  0  0  0
    4.5880    0.0240    0.0000 C   0  0  0  0  0  0  0  0  0  0  0  0
    6.0680    0.0330    0.0000 C   0  0  0  0  0  0  0  0  0  0  0  0
    6.6890   -1.0290    0.0000 O   0  0  0  0  0  0  0  0  0  0  0  0
    6.8150    1.3450    0.0000 C   0  0  0  0  0  0  0  0  0  0  0  0
    8.3190    1.0750    0.0000 C   0  0  0  0  0  0  0  0  0  0  0  0
    9.0750    2.4030    0.0000 C   0  0  0  0  0  0  0  0  0  0  0  0
   10.5770    2.1330    0.0000 C   0  0  0  0  0  0  0  0  0  0  0  0
    3.8880    0.0200   -1.2120 C   0  0  0  0  0  0  0  0  0  0  0  0
    2.4880    0.0110   -1.2120 C   0  0  0  0  0  0  0  0  0  0  0  0
  1  2  1  0  0  0  0
  2  3  2  0  0  0  0
  3  4  1  0  0  0  0
  4  5  1  0  0  0  0
  3  6  1  0  0  0  0
  6  7  2  0  0  0  0
  7  8  1  0  0  0  0
  8  9  2  0  0  0  0
  8 10  1  0  0  0  0
 10 11  1  0  0  0  0
 11 12  1  0  0  0  0
 12 13  1  0  0  0  0
  7 14  1  0  0  0  0
 14 15  2  0  0  0  0
 15  2  1  0  0  0  0
M  END
>  <BIO>
0.78

$$$$
Unnamed
  -MTS-   06200418053D 0   0.00000     0.00000     0

 17 18  0  0  0  0  0  0  0  0  1 V2000
    0.0180   -0.0030    0.0000 S   0  0  0  0  0  0  0  0  0  0  0  0
    1.7880    0.0070    0.0000 C   0  0  0  0  0  0  0  0  0  0  0  0
    2.4880    0.0120    1.2120 C   0  0  0  0  0  0  0  0  0  0  0  0
    1.8030    0.0070    2.3990 O   0  0  0  0  0  0  0  0  0  0  0  0
    1.4750   -1.2570    2.9800 C   0  0  0  0  0  0  0  0  0  0  0  0
    3.8880    0.0200    1.2120 C   0  0  0  0  0  0  0  0  0  0  0  0
    4.5880    0.0240    0.0000 C   0  0  0  0  0  0  0  0  0  0  0  0
    6.0680    0.0330    0.0000 C   0  0  0  0  0  0  0  0  0  0  0  0
    6.6890   -1.0290    0.0000 O   0  0  0  0  0  0  0  0  0  0  0  0
    6.8000    1.3190    0.0000 C   0  0  0  0  0  0  0  0  0  0  0  0
    7.1470    1.9270    1.2130 C   0  0  0  0  0  0  0  0  0  0  0  0
    7.8400    3.1440    1.2130 C   0  0  0  0  0  0  0  0  0  0  0  0
    8.1860    3.7520    0.0000 C   0  0  0  0  0  0  0  0  0  0  0  0
    7.8390    3.1440   -1.2120 C   0  0  0  0  0  0  0  0  0  0  0  0
    7.1470    1.9270   -1.2120 C   0  0  0  0  0  0  0  0  0  0  0  0
    3.8880    0.0200   -1.2120 C   0  0  0  0  0  0  0  0  0  0  0  0
    2.4880    0.0120   -1.2120 C   0  0  0  0  0  0  0  0  0  0  0  0
  1  2  1  0  0  0  0
  2  3  2  0  0  0  0
  3  4  1  0  0  0  0
  4  5  1  0  0  0  0
  3  6  1  0  0  0  0
  6  7  2  0  0  0  0
  7  8  1  0  0  0  0
  8  9  2  0  0  0  0
  8 10  1  0  0  0  0
 10 11  2  0  0  0  0
 11 12  1  0  0  0  0
 12 13  2  0  0  0  0
 13 14  1  0  0  0  0
 14 15  2  0  0  0  0
 15 10  1  0  0  0  0
  7 16  1  0  0  0  0
 16 17  2  0  0  0  0
 17  2  1  0  0  0  0
M  END
>  <BIO>
18.10

$$$$
Unnamed
  -MTS-   06200418053D 0   0.00000     0.00000     0

 15 15  0  0  0  0  0  0  0  0  1 V2000
    0.0180   -0.0030    0.0000 S   0  0  0  0  0  0  0  0  0  0  0  0
    1.7880    0.0070    0.0000 C   0  0  0  0  0  0  0  0  0  0  0  0
    2.4880    0.0120    1.2120 C   0  0  0  0  0  0  0  0  0  0  0  0
    1.8030    0.0070    2.3990 O   0  0  0  0  0  0  0  0  0  0  0  0
    1.4750   -1.2570    2.9800 C   0  0  0  0  0  0  0  0  0  0  0  0
    3.8880    0.0200    1.2120 C   0  0  0  0  0  0  0  0  0  0  0  0
    4.5880    0.0240    0.0000 C   0  0  0  0  0  0  0  0  0  0  0  0
    6.0680    0.0330    0.0000 C   0  0  0  0  0  0  0  0  0  0  0  0
    6.6890   -1.0290    0.0000 O   0  0  0  0  0  0  0  0  0  0  0  0
    6.8150    1.3450    0.0000 C   0  0  0  0  0  0  0  0  0  0  0  0
    8.1240    1.1100    0.0000 F   0  0  0  0  0  0  0  0  0  0  0  0
    6.4900    2.0410   -1.0860 F   0  0  0  0  0  0  0  0  0  0  0  0
    6.4900    2.0410    1.0860 F   0  0  0  0  0  0  0  0  0  0  0  0
    3.8880    0.0200   -1.2120 C   0  0  0  0  0  0  0  0  0  0  0  0
    2.4880    0.0110   -1.2120 C   0  0  0  0  0  0  0  0  0  0  0  0
  1  2  1  0  0  0  0
  2  3  2  0  0  0  0
  3  4  1  0  0  0  0
  4  5  1  0  0  0  0
  3  6  1  0  0  0  0
  6  7  2  0  0  0  0
  7  8  1  0  0  0  0
  8  9  2  0  0  0  0
  8 10  1  0  0  0  0
 10 11  1  0  0  0  0
 10 12  1  0  0  0  0
 10 13  1  0  0  0  0
  7 14  1  0  0  0  0
 14 15  2  0  0  0  0
 15  2  1  0  0  0  0
M  END
>  <BIO>
2.20

$$$$
Unnamed
  -MTS-   06200418053D 0   0.00000     0.00000     0

 12 12  0  0  0  0  0  0  0  0  1 V2000
    0.0180   -0.0030    0.0000 S   0  0  0  0  0  0  0  0  0  0  0  0
    1.7880    0.0070    0.0000 C   0  0  0  0  0  0  0  0  0  0  0  0
    2.4880    0.0120    1.2120 C   0  0  0  0  0  0  0  0  0  0  0  0
    1.8030    0.0070    2.3990 O   0  0  0  0  0  0  0  0  0  0  0  0
    1.4750   -1.2570    2.9800 C   0  0  0  0  0  0  0  0  0  0  0  0
    3.8880    0.0200    1.2120 C   0  0  0  0  0  0  0  0  0  0  0  0
    4.5880    0.0240    0.0000 C   0  0  0  0  0  0  0  0  0  0  0  0
    6.0680    0.0330    0.0000 C   0  0  0  0  0  0  0  0  0  0  0  0
    6.6890   -1.0290    0.0000 O   0  0  0  0  0  0  0  0  0  0  0  0
    6.7260    1.1890    0.0000 N   0  0  0  0  0  0  0  0  0  0  0  0
    3.8880    0.0200   -1.2130 C   0  0  0  0  0  0  0  0  0  0  0  0
    2.4880    0.0120   -1.2130 C   0  0  0  0  0  0  0  0  0  0  0  0
  1  2  1  0  0  0  0
  2  3  2  0  0  0  0
  3  4  1  0  0  0  0
  4  5  1  0  0  0  0
  3  6  1  0  0  0  0
  6  7  2  0  0  0  0
  7  8  1  0  0  0  0
  8  9  2  0  0  0  0
  8 10  1  0  0  0  0
  7 11  1  0  0  0  0
 11 12  2  0  0  0  0
 12  2  1  0  0  0  0
M  END
>  <BIO>
1.60

$$$$
Unnamed
  -MTS-   06200418053D 0   0.00000     0.00000     0

 14 14  0  0  0  0  0  0  0  0  1 V2000
    0.0180   -0.0030    0.0000 S   0  0  0  0  0  0  0  0  0  0  0  0
    1.7880    0.0070    0.0000 C   0  0  0  0  0  0  0  0  0  0  0  0
    2.4880    0.0120    1.2120 C   0  0  0  0  0  0  0  0  0  0  0  0
    1.8030    0.0070    2.3990 O   0  0  0  0  0  0  0  0  0  0  0  0
    1.4750   -1.2570    2.9800 C   0  0  0  0  0  0  0  0  0  0  0  0
    3.8880    0.0200    1.2120 C   0  0  0  0  0  0  0  0  0  0  0  0
    4.5880    0.0240    0.0000 C   0  0  0  0  0  0  0  0  0  0  0  0
    6.0680    0.0330    0.0000 C   0  0  0  0  0  0  0  0  0  0  0  0
    6.6890   -1.0290    0.0000 O   0  0  0  0  0  0  0  0  0  0  0  0
    6.7260    1.1890    0.0000 N   0  0  0  0  0  0  0  0  0  0  0  0
    8.1960    1.1970    0.0000 C   0  0  0  0  0  0  0  0  0  0  0  0
    5.9840    2.4570    0.0000 C   0  0  0  0  0  0  0  0  0  0  0  0
    3.8880    0.0200   -1.2120 C   0  0  0  0  0  0  0  0  0  0  0  0
    2.4880    0.0110   -1.2120 C   0  0  0  0  0  0  0  0  0  0  0  0
  1  2  1  0  0  0  0
  2  3  2  0  0  0  0
  3  4  1  0  0  0  0
  4  5  1  0  0  0  0
  3  6  1  0  0  0  0
  6  7  2  0  0  0  0
  7  8  1  0  0  0  0
  8  9  2  0  0  0  0
  8 10  1  0  0  0  0
 10 11  1  0  0  0  0
 10 12  1  0  0  0  0
  7 13  1  0  0  0  0
 13 14  2  0  0  0  0
 14  2  1  0  0  0  0
M  END
>  <BIO>
0.72

$$$$
Unnamed
  -MTS-   06200418053D 0   0.00000     0.00000     0

 12 12  0  0  0  0  0  0  0  0  1 V2000
    0.0180   -0.0030    0.0000 S   0  0  0  0  0  0  0  0  0  0  0  0
    1.7880    0.0070    0.0000 C   0  0  0  0  0  0  0  0  0  0  0  0
    2.4880    0.0110    1.2120 C   0  0  0  0  0  0  0  0  0  0  0  0
    1.8030    0.0070    2.3990 O   0  0  0  0  0  0  0  0  0  0  0  0
    1.4750   -1.2570    2.9800 C   0  0  0  0  0  0  0  0  0  0  0  0
    3.8880    0.0200    1.2120 C   0  0  0  0  0  0  0  0  0  0  0  0
    4.5880    0.0240    0.0000 C   0  0  0  0  0  0  0  0  0  0  0  0
    6.0680    0.0330    0.0000 C   0  0  0  0  0  0  0  0  0  0  0  0
    6.7450   -1.1230    0.0000 C   0  0  0  0  0  0  0  0  0  0  0  0
    6.8150    1.3450    0.0000 C   0  0  0  0  0  0  0  0  0  0  0  0
    3.8880    0.0200   -1.2120 C   0  0  0  0  0  0  0  0  0  0  0  0
    2.4880    0.0120   -1.2120 C   0  0  0  0  0  0  0  0  0  0  0  0
  1  2  1  0  0  0  0
  2  3  2  0  0  0  0
  3  4  1  0  0  0  0
  4  5  1  0  0  0  0
  3  6  1  0  0  0  0
  6  7  2  0  0  0  0
  7  8  1  0  0  0  0
  8  9  2  0  0  0  0
  8 10  1  0  0  0  0
  7 11  1  0  0  0  0
 11 12  2  0  0  0  0
 12  2  1  0  0  0  0
M  END
>  <BIO>
0.55

$$$$
Unnamed
  -MTS-   06200418053D 0   0.00000     0.00000     0

 13 13  0  0  0  0  0  0  0  0  1 V2000
    0.0180   -0.0030    0.0000 S   0  0  0  0  0  0  0  0  0  0  0  0
    1.7880    0.0070    0.0000 C   0  0  0  0  0  0  0  0  0  0  0  0
    2.4880    0.0120    1.2120 C   0  0  0  0  0  0  0  0  0  0  0  0
    1.8030    0.0070    2.3990 O   0  0  0  0  0  0  0  0  0  0  0  0
    1.4750   -1.2570    2.9800 C   0  0  0  0  0  0  0  0  0  0  0  0
    3.8880    0.0200    1.2130 C   0  0  0  0  0  0  0  0  0  0  0  0
    4.5880    0.0240    0.0000 C   0  0  0  0  0  0  0  0  0  0  0  0
    6.0680    0.0330    0.0000 C   0  0  0  0  0  0  0  0  0  0  0  0
    6.7350   -1.1060    0.0000 N   0  0  0  0  0  0  0  0  0  0  0  0
    8.1350   -1.0980    0.0000 O   0  0  0  0  0  0  0  0  0  0  0  0
    6.8150    1.3450    0.0000 C   0  0  0  0  0  0  0  0  0  0  0  0
    3.8880    0.0200   -1.2120 C   0  0  0  0  0  0  0  0  0  0  0  0
    2.4880    0.0110   -1.2120 C   0  0  0  0  0  0  0  0  0  0  0  0
  1  2  1  0  0  0  0
  2  3  2  0  0  0  0
  3  4  1  0  0  0  0
  4  5  1  0  0  0  0
  3  6  1  0  0  0  0
  6  7  2  0  0  0  0
  7  8  1  0  0  0  0
  8  9  2  0  0  0  0
  9 10  1  0  0  0  0
  8 11  1  0  0  0  0
  7 12  1  0  0  0  0
 12 13  2  0  0  0  0
 13  2  1  0  0  0  0
M  END
>  <BIO>
1.10

$$$$
Unnamed
  -MTS-   06200418053D 0   0.00000     0.00000     0

 13 13  0  0  0  0  0  0  0  0  1 V2000
    0.0180   -0.0030    0.0000 S   0  0  0  0  0  0  0  0  0  0  0  0
    1.7880    0.0070    0.0000 C   0  0  0  0  0  0  0  0  0  0  0  0
    2.4880    0.0110    1.2120 C   0  0  0  0  0  0  0  0  0  0  0  0
    1.8030    0.0070    2.3990 O   0  0  0  0  0  0  0  0  0  0  0  0
    1.4750   -1.2570    2.9800 C   0  0  0  0  0  0  0  0  0  0  0  0
    3.8880    0.0200    1.2120 C   0  0  0  0  0  0  0  0  0  0  0  0
    4.5880    0.0240    0.0000 C   0  0  0  0  0  0  0  0  0  0  0  0
    6.0680    0.0330    0.0000 C   0  0  0  0  0  0  0  0  0  0  0  0
    6.7210    1.1800    0.0000 N   0  0  0  0  0  0  0  0  0  0  0  0
    8.1710    1.1890    0.0000 N   0  0  0  0  0  0  0  0  0  0  0  0
    6.8310   -1.2700    0.0000 C   0  0  0  0  0  0  0  0  0  0  0  0
    3.8880    0.0200   -1.2120 C   0  0  0  0  0  0  0  0  0  0  0  0
    2.4880    0.0120   -1.2120 C   0  0  0  0  0  0  0  0  0  0  0  0
  1  2  1  0  0  0  0
  2  3  2  0  0  0  0
  3  4  1  0  0  0  0
  4  5  1  0  0  0  0
  3  6  1  0  0  0  0
  6  7  2  0  0  0  0
  7  8  1  0  0  0  0
  8  9  2  0  0  0  0
  9 10  1  0  0  0  0
  8 11  1  0  0  0  0
  7 12  1  0  0  0  0
 12 13  2  0  0  0  0
 13  2  1  0  0  0  0
M  END
>  <BIO>
0.64

$$$$
Unnamed
  -MTS-   06200418053D 0   0.00000     0.00000     0

 11 11  0  0  0  0  0  0  0  0  1 V2000
    0.0180   -0.0030    0.0000 S   0  0  0  0  0  0  0  0  0  0  0  0
    1.7880    0.0070    0.0000 C   0  0  0  0  0  0  0  0  0  0  0  0
    2.4880    0.0120    1.2120 C   0  0  0  0  0  0  0  0  0  0  0  0
    1.8030    0.0070    2.3990 O   0  0  0  0  0  0  0  0  0  0  0  0
    1.4750   -1.2570    2.9800 C   0  0  0  0  0  0  0  0  0  0  0  0
    3.8880    0.0200    1.2120 C   0  0  0  0  0  0  0  0  0  0  0  0
    4.5880    0.0240    0.0000 C   0  0  0  0  0  0  0  0  0  0  0  0
    6.0980    0.0330    0.0000 C   0  0  0  0  0  0  0  0  0  0  0  0
    6.5980    1.4750    0.0000 C   0  0  0  0  0  0  0  0  0  0  0  0
    3.8880    0.0200   -1.2120 C   0  0  0  0  0  0  0  0  0  0  0  0
    2.4880    0.0120   -1.2120 C   0  0  0  0  0  0  0  0  0  0  0  0
  1  2  1  0  0  0  0
  2  3  2  0  0  0  0
  3  4  1  0  0  0  0
  4  5  1  0  0  0  0
  3  6  1  0  0  0  0
  6  7  2  0  0  0  0
  7  8  1  0  0  0  0
  8  9  1  0  0  0  0
  7 10  1  0  0  0  0
 10 11  2  0  0  0  0
 11  2  1  0  0  0  0
M  END
>  <BIO>
0.18

$$$$
Unnamed
  -MTS-   06200418053D 0   0.00000     0.00000     0

 11 11  0  0  0  0  0  0  0  0  1 V2000
    0.0180   -0.0030    0.0000 S   0  0  0  0  0  0  0  0  0  0  0  0
    1.7880    0.0070    0.0000 C   0  0  0  0  0  0  0  0  0  0  0  0
    2.4880    0.0120    1.2120 C   0  0  0  0  0  0  0  0  0  0  0  0
    1.8030    0.0070    2.3990 O   0  0  0  0  0  0  0  0  0  0  0  0
    1.4750   -1.2570    2.9800 C   0  0  0  0  0  0  0  0  0  0  0  0
    3.8880    0.0200    1.2130 C   0  0  0  0  0  0  0  0  0  0  0  0
    4.5880    0.0240    0.0000 C   0  0  0  0  0  0  0  0  0  0  0  0
    6.0380    0.0330    0.0000 C   0  0  0  0  0  0  0  0  0  0  0  0
    7.1980    0.0400    0.0000 N   0  0  0  0  0  0  0  0  0  0  0  0
    3.8880    0.0200   -1.2120 C   0  0  0  0  0  0  0  0  0  0  0  0
    2.4880    0.0120   -1.2120 C   0  0  0  0  0  0  0  0  0  0  0  0
  1  2  1  0  0  0  0
  2  3  2  0  0  0  0
  3  4  1  0  0  0  0
  4  5  1  0  0  0  0
  3  6  1  0  0  0  0
  6  7  2  0  0  0  0
  7  8  1  0  0  0  0
  8  9  3  0  0  0  0
  7 10  1  0  0  0  0
 10 11  2  0  0  0  0
 11  2  1  0  0  0  0
M  END
>  <BIO>
1.00

$$$$
Unnamed
  -MTS-   06200418053D 0   0.00000     0.00000     0

 10 10  0  0  0  0  0  0  0  0  1 V2000
    0.0180   -0.0030    0.0000 S   0  0  0  0  0  0  0  0  0  0  0  0
    1.7880    0.0070    0.0000 C   0  0  0  0  0  0  0  0  0  0  0  0
    2.4880    0.0120    1.2120 C   0  0  0  0  0  0  0  0  0  0  0  0
    1.8030    0.0080    2.3990 O   0  0  0  0  0  0  0  0  0  0  0  0
    1.4750   -1.2570    2.9800 C   0  0  0  0  0  0  0  0  0  0  0  0
    3.8880    0.0200    1.2130 C   0  0  0  0  0  0  0  0  0  0  0  0
    4.5880    0.0240    0.0000 C   0  0  0  0  0  0  0  0  0  0  0  0
    6.4380    0.0350    0.0000 Br  0  0  0  0  0  0  0  0  0  0  0  0
    3.8880    0.0200   -1.2120 C   0  0  0  0  0  0  0  0  0  0  0  0
    2.4880    0.0110   -1.2120 C   0  0  0  0  0  0  0  0  0  0  0  0
  1  2  1  0  0  0  0
  2  3  2  0  0  0  0
  3  4  1  0  0  0  0
  4  5  1  0  0  0  0
  3  6  1  0  0  0  0
  6  7  2  0  0  0  0
  7  8  1  0  0  0  0
  7  9  1  0  0  0  0
  9 10  2  0  0  0  0
 10  2  1  0  0  0  0
M  END
>  <BIO>
1.60

$$$$
Unnamed
  -MTS-   06200418053D 0   0.00000     0.00000     0

  9  9  0  0  0  0  0  0  0  0  1 V2000
    0.0180   -0.0030    0.0000 S   0  0  0  0  0  0  0  0  0  0  0  0
    1.7880    0.0070    0.0000 C   0  0  0  0  0  0  0  0  0  0  0  0
    2.4880    0.0110    1.2120 C   0  0  0  0  0  0  0  0  0  0  0  0
    1.8030    0.0070    2.3990 O   0  0  0  0  0  0  0  0  0  0  0  0
    1.4750   -1.2570    2.9800 C   0  0  0  0  0  0  0  0  0  0  0  0
    3.8880    0.0200    1.2120 C   0  0  0  0  0  0  0  0  0  0  0  0
    4.5880    0.0240    0.0000 C   0  0  0  0  0  0  0  0  0  0  0  0
    3.8880    0.0200   -1.2130 C   0  0  0  0  0  0  0  0  0  0  0  0
    2.4880    0.0110   -1.2130 C   0  0  0  0  0  0  0  0  0  0  0  0
  1  2  1  0  0  0  0
  2  3  2  0  0  0  0
  3  4  1  0  0  0  0
  4  5  1  0  0  0  0
  3  6  1  0  0  0  0
  6  7  2  0  0  0  0
  7  8  1  0  0  0  0
  8  9  2  0  0  0  0
  9  2  1  0  0  0  0
M  END
>  <BIO>
0.48

$$$$
Unnamed
  -MTS-   06200418053D 0   0.00000     0.00000     0

 12 12  0  0  0  0  0  0  0  0  1 V2000
    0.0180   -0.0030    0.0000 S   0  0  0  0  0  0  0  0  0  0  0  0
    1.7880    0.0070    0.0000 C   0  0  0  0  0  0  0  0  0  0  0  0
    2.4880    0.0110    1.2120 C   0  0  0  0  0  0  0  0  0  0  0  0
    3.8880    0.0200    1.2120 C   0  0  0  0  0  0  0  0  0  0  0  0
    4.5730    0.0240    2.3990 O   0  0  0  0  0  0  0  0  0  0  0  0
    4.9160   -1.2370    2.9800 C   0  0  0  0  0  0  0  0  0  0  0  0
    4.5880    0.0240    0.0000 C   0  0  0  0  0  0  0  0  0  0  0  0
    6.0680    0.0330    0.0000 C   0  0  0  0  0  0  0  0  0  0  0  0
    6.6890   -1.0290    0.0000 O   0  0  0  0  0  0  0  0  0  0  0  0
    6.8150    1.3450    0.0000 C   0  0  0  0  0  0  0  0  0  0  0  0
    3.8880    0.0200   -1.2120 C   0  0  0  0  0  0  0  0  0  0  0  0
    2.4880    0.0120   -1.2120 C   0  0  0  0  0  0  0  0  0  0  0  0
  1  2  1  0  0  0  0
  2  3  2  0  0  0  0
  3  4  1  0  0  0  0
  4  5  1  0  0  0  0
  5  6  1  0  0  0  0
  4  7  2  0  0  0  0
  7  8  1  0  0  0  0
  8  9  2  0  0  0  0
  8 10  1  0  0  0  0
  7 11  1  0  0  0  0
 11 12  2  0  0  0  0
 12  2  1  0  0  0  0
M  END
>  <BIO>
0.28

$$$$
Unnamed
  -MTS-   06200418053D 0   0.00000     0.00000     0

 11 11  0  0  0  0  0  0  0  0  1 V2000
    0.0180   -0.0030    0.0000 S   0  0  0  0  0  0  0  0  0  0  0  0
    1.7880    0.0070    0.0000 C   0  0  0  0  0  0  0  0  0  0  0  0
    2.4880    0.0110    1.2120 C   0  0  0  0  0  0  0  0  0  0  0  0
    3.8880    0.0200    1.2120 C   0  0  0  0  0  0  0  0  0  0  0  0
    4.6430    0.0240    2.5200 C   0  0  0  0  0  0  0  0  0  0  0  0
    4.5880    0.0240    0.0000 C   0  0  0  0  0  0  0  0  0  0  0  0
    6.0680    0.0330    0.0000 C   0  0  0  0  0  0  0  0  0  0  0  0
    6.6890   -1.0290    0.0000 O   0  0  0  0  0  0  0  0  0  0  0  0
    6.8150    1.3450    0.0000 C   0  0  0  0  0  0  0  0  0  0  0  0
    3.8880    0.0200   -1.2120 C   0  0  0  0  0  0  0  0  0  0  0  0
    2.4880    0.0110   -1.2120 C   0  0  0  0  0  0  0  0  0  0  0  0
  1  2  1  0  0  0  0
  2  3  2  0  0  0  0
  3  4  1  0  0  0  0
  4  5  1  0  0  0  0
  4  6  2  0  0  0  0
  6  7  1  0  0  0  0
  7  8  2  0  0  0  0
  7  9  1  0  0  0  0
  6 10  1  0  0  0  0
 10 11  2  0  0  0  0
 11  2  1  0  0  0  0
M  END
>  <BIO>
1.20

$$$$
Unnamed
  -MTS-   06200418053D 0   0.00000     0.00000     0

 11 11  0  0  0  0  0  0  0  0  1 V2000
    0.0180   -0.0030    0.0000 S   0  0  0  0  0  0  0  0  0  0  0  0
    1.7880    0.0070    0.0000 C   0  0  0  0  0  0  0  0  0  0  0  0
    2.4880    0.0120    1.2120 C   0  0  0  0  0  0  0  0  0  0  0  0
    1.7480    0.0070    2.4940 C   0  0  0  0  0  0  0  0  0  0  0  0
    1.4340    1.0700    3.0270 O   0  0  0  0  0  0  0  0  0  0  0  0
    1.3780   -1.3030    3.1480 C   0  0  0  0  0  0  0  0  0  0  0  0
    3.8880    0.0200    1.2120 C   0  0  0  0  0  0  0  0  0  0  0  0
    4.5880    0.0240    0.0000 C   0  0  0  0  0  0  0  0  0  0  0  0
    6.0980    0.0330    0.0000 C   0  0  0  0  0  0  0  0  0  0  0  0
    3.8880    0.0200   -1.2120 C   0  0  0  0  0  0  0  0  0  0  0  0
    2.4880    0.0110   -1.2120 C   0  0  0  0  0  0  0  0  0  0  0  0
  1  2  1  0  0  0  0
  2  3  2  0  0  0  0
  3  4  1  0  0  0  0
  4  5  2  0  0  0  0
  4  6  1  0  0  0  0
  3  7  1  0  0  0  0
  7  8  2  0  0  0  0
  8  9  1  0  0  0  0
  8 10  1  0  0  0  0
 10 11  2  0  0  0  0
 11  2  1  0  0  0  0
M  END
>  <BIO>
5.60

$$$$
Unnamed
  -MTS-   06200418053D 0   0.00000     0.00000     0

 13 13  0  0  0  0  0  0  0  0  1 V2000
    0.0180   -0.0030    0.0000 S   0  0  0  0  0  0  0  0  0  0  0  0
    1.7880    0.0070    0.0000 C   0  0  0  0  0  0  0  0  0  0  0  0
    2.4880    0.0120   -1.2120 C   0  0  0  0  0  0  0  0  0  0  0  0
    1.8030    0.0080   -2.3990 O   0  0  0  0  0  0  0  0  0  0  0  0
    1.4600    1.2680   -2.9800 C   0  0  0  0  0  0  0  0  0  0  0  0
    3.8880    0.0200   -1.2120 C   0  0  0  0  0  0  0  0  0  0  0  0
    4.5880    0.0240    0.0000 C   0  0  0  0  0  0  0  0  0  0  0  0
    3.8880    0.0200    1.2130 C   0  0  0  0  0  0  0  0  0  0  0  0
    4.5960    0.0240    2.4380 N   0  0  0  0  0  0  0  0  0  0  0  0
    4.9350   -1.1260    3.0140 C   0  0  0  0  0  0  0  0  0  0  0  0
    4.6340   -2.1930    2.4810 O   0  0  0  0  0  0  0  0  0  0  0  0
    5.6900   -1.1210    4.3220 C   0  0  0  0  0  0  0  0  0  0  0  0
    2.4880    0.0120    1.2130 C   0  0  0  0  0  0  0  0  0  0  0  0
  1  2  1  0  0  0  0
  2  3  2  0  0  0  0
  3  4  1  0  0  0  0
  4  5  1  0  0  0  0
  3  6  1  0  0  0  0
  6  7  2  0  0  0  0
  7  8  1  0  0  0  0
  8  9  1  0  0  0  0
  9 10  1  0  0  0  0
 10 11  2  0  0  0  0
 10 12  1  0  0  0  0
  8 13  2  0  0  0  0
 13  2  1  0  0  0  0
M  END
>  <BIO>
0.60

$$$$
Unnamed
  -MTS-   06200418053D 0   0.00000     0.00000     0

 10 10  0  0  0  0  0  0  0  0  1 V2000
    0.0180   -0.0030    0.0000 S   0  0  0  0  0  0  0  0  0  0  0  0
    1.7880    0.0070    0.0000 C   0  0  0  0  0  0  0  0  0  0  0  0
    2.4880    0.0120    1.2120 C   0  0  0  0  0  0  0  0  0  0  0  0
    1.8030    0.0070    2.3990 O   0  0  0  0  0  0  0  0  0  0  0  0
    1.4750   -1.2570    2.9800 C   0  0  0  0  0  0  0  0  0  0  0  0
    3.8880    0.0200    1.2120 C   0  0  0  0  0  0  0  0  0  0  0  0
    4.5880    0.0240    0.0000 C   0  0  0  0  0  0  0  0  0  0  0  0
    3.8880    0.0200   -1.2130 C   0  0  0  0  0  0  0  0  0  0  0  0
    4.5890    0.0240   -2.4270 N   0  0  0  0  0  0  0  0  0  0  0  0
    2.4880    0.0120   -1.2120 C   0  0  0  0  0  0  0  0  0  0  0  0
  1  2  1  0  0  0  0
  2  3  2  0  0  0  0
  3  4  1  0  0  0  0
  4  5  1  0  0  0  0
  3  6  1  0  0  0  0
  6  7  2  0  0  0  0
  7  8  1  0  0  0  0
  8  9  1  0  0  0  0
  8 10  2  0  0  0  0
 10  2  1  0  0  0  0
M  END
>  <BIO>
0.16

$$$$
Unnamed
  -MTS-   06200418053D 0   0.00000     0.00000     0

 10 10  0  0  0  0  0  0  0  0  1 V2000
    0.0180   -0.0030    0.0000 S   0  0  0  0  0  0  0  0  0  0  0  0
    1.7880    0.0070    0.0000 C   0  0  0  0  0  0  0  0  0  0  0  0
    2.4880    0.0110    1.2120 C   0  0  0  0  0  0  0  0  0  0  0  0
    3.8880    0.0200    1.2120 C   0  0  0  0  0  0  0  0  0  0  0  0
    4.6280    0.0240    2.4940 C   0  0  0  0  0  0  0  0  0  0  0  0
    4.9290    1.0910    3.0270 O   0  0  0  0  0  0  0  0  0  0  0  0
    5.0130   -1.2810    3.1480 C   0  0  0  0  0  0  0  0  0  0  0  0
    4.5880    0.0240    0.0000 C   0  0  0  0  0  0  0  0  0  0  0  0
    3.8880    0.0200   -1.2120 C   0  0  0  0  0  0  0  0  0  0  0  0
    2.4880    0.0120   -1.2120 C   0  0  0  0  0  0  0  0  0  0  0  0
  1  2  1  0  0  0  0
  2  3  2  0  0  0  0
  3  4  1  0  0  0  0
  4  5  1  0  0  0  0
  5  6  2  0  0  0  0
  5  7  1  0  0  0  0
  4  8  2  0  0  0  0
  8  9  1  0  0  0  0
  9 10  2  0  0  0  0
 10  2  1  0  0  0  0
M  END
>  <BIO>
0.39

$$$$
Unnamed
  -MTS-   06200418053D 0   0.00000     0.00000     0

  8  8  0  0  0  0  0  0  0  0  1 V2000
    0.0180   -0.0030    0.0000 S   0  0  0  0  0  0  0  0  0  0  0  0
    1.7880    0.0070    0.0000 C   0  0  0  0  0  0  0  0  0  0  0  0
    2.4880    0.0120    1.2120 C   0  0  0  0  0  0  0  0  0  0  0  0
    1.7870    0.0070    2.4270 N   0  0  0  0  0  0  0  0  0  0  0  0
    3.8880    0.0200    1.2120 C   0  0  0  0  0  0  0  0  0  0  0  0
    4.5880    0.0240    0.0000 C   0  0  0  0  0  0  0  0  0  0  0  0
    3.8880    0.0200   -1.2120 C   0  0  0  0  0  0  0  0  0  0  0  0
    2.4880    0.0120   -1.2120 C   0  0  0  0  0  0  0  0  0  0  0  0
  1  2  1  0  0  0  0
  2  3  2  0  0  0  0
  3  4  1  0  0  0  0
  3  5  1  0  0  0  0
  5  6  2  0  0  0  0
  6  7  1  0  0  0  0
  7  8  2  0  0  0  0
  8  2  1  0  0  0  0
M  END
>  <BIO>
0.42

$$$$
Unnamed
  -MTS-   06200418053D 0   0.00000     0.00000     0

  9  9  0  0  0  0  0  0  0  0  1 V2000
    0.0180   -0.0030    0.0000 S   0  0  0  0  0  0  0  0  0  0  0  0
    1.7880    0.0070    0.0000 C   0  0  0  0  0  0  0  0  0  0  0  0
    2.4880    0.0110    1.2120 C   0  0  0  0  0  0  0  0  0  0  0  0
    1.7810    0.0070    2.4380 N   0  0  0  0  0  0  0  0  0  0  0  0
    1.5440   -1.3800    2.8620 C   0  0  0  0  0  0  0  0  0  0  0  0
    3.8880    0.0200    1.2120 C   0  0  0  0  0  0  0  0  0  0  0  0
    4.5880    0.0240    0.0000 C   0  0  0  0  0  0  0  0  0  0  0  0
    3.8880    0.0200   -1.2120 C   0  0  0  0  0  0  0  0  0  0  0  0
    2.4880    0.0110   -1.2120 C   0  0  0  0  0  0  0  0  0  0  0  0
  1  2  1  0  0  0  0
  2  3  2  0  0  0  0
  3  4  1  0  0  0  0
  4  5  1  0  0  0  0
  3  6  1  0  0  0  0
  6  7  2  0  0  0  0
  7  8  1  0  0  0  0
  8  9  2  0  0  0  0
  9  2  1  0  0  0  0
M  END
>  <BIO>
0.81

$$$$
Unnamed
  -MTS-   06200418053D 0   0.00000     0.00000     0

  7  7  0  0  0  0  0  0  0  0  1 V2000
    0.0180   -0.0030    0.0000 S   0  0  0  0  0  0  0  0  0  0  0  0
    1.7880    0.0070    0.0000 C   0  0  0  0  0  0  0  0  0  0  0  0
    2.4880    0.0120    1.2120 C   0  0  0  0  0  0  0  0  0  0  0  0
    3.8880    0.0200    1.2120 C   0  0  0  0  0  0  0  0  0  0  0  0
    4.5880    0.0240    0.0000 C   0  0  0  0  0  0  0  0  0  0  0  0
    3.8880    0.0200   -1.2120 C   0  0  0  0  0  0  0  0  0  0  0  0
    2.4880    0.0120   -1.2120 C   0  0  0  0  0  0  0  0  0  0  0  0
  1  2  1  0  0  0  0
  2  3  2  0  0  0  0
  3  4  1  0  0  0  0
  4  5  2  0  0  0  0
  5  6  1  0  0  0  0
  6  7  2  0  0  0  0
  7  2  1  0  0  0  0
M  END
>  <BIO>
0.62

$$$$
