Unnamed
  -MTS-   06200418053D 0   0.00000     0.00000     0

  4  3  0  0  0  0  0  0  0  0  1 V2000
    0.0560    0.0550    0.0000 S   0  0  0  0  0  0  0  0  0  0  0  0
    1.8710   -0.0770    0.0000 C   0  0  0  0  0  0  0  0  0  0  0  0
    2.2740   -1.5510    0.0000 C   0  0  0  0  0  0  0  0  0  0  0  0
    3.7960   -1.6620    0.0000 C   0  0  0  0  0  0  0  0  0  0  0  0
  1  2  1  0  0  0  0
  2  3  1  0  0  0  0
  3  4  1  0  0  0  0
M  END
>  <BIO>
1.90

$$$$
Unnamed
  -MTS-   06200418053D 0   0.00000     0.00000     0

  2  1  0  0  0  0  0  0  0  0  1 V2000
    0.0560    0.0550    0.0000 S   0  0  0  0  0  0  0  0  0  0  0  0
    1.8710   -0.0770    0.0000 C   0  0  0  0  0  0  0  0  0  0  0  0
  1  2  1  0  0  0  0
M  END
>  <BIO>
41.00

$$$$
Unnamed
  -MTS-   06200418053D 0   0.00000     0.00000     0

  3  2  0  0  0  0  0  0  0  0  1 V2000
    0.0560    0.0550    0.0000 S   0  0  0  0  0  0  0  0  0  0  0  0
    1.8710   -0.0770    0.0000 C   0  0  0  0  0  0  0  0  0  0  0  0
    2.2730   -1.5490    0.0000 C   0  0  0  0  0  0  0  0  0  0  0  0
  1  2  1  0  0  0  0
  2  3  1  0  0  0  0
M  END
>  <BIO>
23.00

$$$$
Unnamed
  -MTS-   06200418053D 0   0.00000     0.00000     0

  4  3  0  0  0  0  0  0  0  0  1 V2000
    0.0560    0.0560    0.0000 S   0  0  0  0  0  0  0  0  0  0  0  0
    1.8710   -0.0770    0.0000 C   0  0  0  0  0  0  0  0  0  0  0  0
    2.2690   -1.5340    0.0000 C   0  0  0  0  0  0  0  0  0  0  0  0
    3.5650   -1.8740    0.0000 C   0  0  0  0  0  0  0  0  0  0  0  0
  1  2  1  0  0  0  0
  2  3  1  0  0  0  0
  3  4  2  0  0  0  0
M  END
>  <BIO>
1.50

$$$$
Unnamed
  -MTS-   06200418053D 0   0.00000     0.00000     0

  5  4  0  0  0  0  0  0  0  0  1 V2000
    0.0560    0.0550    0.0000 S   0  0  0  0  0  0  0  0  0  0  0  0
    1.8710   -0.0770    0.0000 C   0  0  0  0  0  0  0  0  0  0  0  0
    2.2740   -1.5510    0.0000 C   0  0  0  0  0  0  0  0  0  0  0  0
    3.7980   -1.6630    0.0000 C   0  0  0  0  0  0  0  0  0  0  0  0
    4.2000   -3.1350    0.0000 C   0  0  0  0  0  0  0  0  0  0  0  0
  1  2  1  0  0  0  0
  2  3  1  0  0  0  0
  3  4  1  0  0  0  0
  4  5  1  0  0  0  0
M  END
>  <BIO>
83.00

$$$$
Unnamed
  -MTS-   06200418053D 0   0.00000     0.00000     0

  5  5  0  0  0  0  0  0  0  0  1 V2000
   -0.0010    0.0000    0.0000 S   0  0  0  0  0  0  0  0  0  0  0  0
    1.8190    0.0000    0.0000 C   0  0  0  0  0  0  0  0  0  0  0  0
    2.3280   -1.4410    0.0000 C   0  0  0  0  0  0  0  0  0  0  0  0
    2.5640   -2.1100   -1.3100 C   0  0  0  0  0  0  0  0  0  0  0  0
    3.7200   -1.7020   -0.4630 C   0  0  0  0  0  0  0  0  0  0  0  0
  1  2  1  0  0  0  0
  2  3  1  0  0  0  0
  3  4  1  0  0  0  0
  4  5  1  0  0  0  0
  5  3  1  0  0  0  0
M  END
>  <BIO>
8.30

$$$$
Unnamed
  -MTS-   06200418053D 0   0.00000     0.00000     0

  5  4  0  0  0  0  0  0  0  0  1 V2000
    0.0560    0.0550    0.0000 S   0  0  0  0  0  0  0  0  0  0  0  0
    1.8710   -0.0770    0.0000 C   0  0  0  0  0  0  0  0  0  0  0  0
    2.2740   -1.5510    0.0000 C   0  0  0  0  0  0  0  0  0  0  0  0
    3.7800   -1.6610    0.0000 C   0  0  0  0  0  0  0  0  0  0  0  0
    4.3630   -2.8670    0.0000 C   0  0  0  0  0  0  0  0  0  0  0  0
  1  2  1  0  0  0  0
  2  3  1  0  0  0  0
  3  4  1  0  0  0  0
  4  5  2  0  0  0  0
M  END
>  <BIO>
82.00

$$$$
Unnamed
  -MTS-   06200418053D 0   0.00000     0.00000     0

  5  4  0  0  0  0  0  0  0  0  1 V2000
    0.0560    0.0560    0.0000 S   0  0  0  0  0  0  0  0  0  0  0  0
    1.8710   -0.0770    0.0000 C   0  0  0  0  0  0  0  0  0  0  0  0
    2.2480   -1.4570    0.0000 O   0  0  0  0  0  0  0  0  0  0  0  0
    3.6680   -1.6240    0.0000 C   0  0  0  0  0  0  0  0  0  0  0  0
    2.4310    0.6030    1.2460 C   0  0  0  0  0  0  0  0  0  0  0  0
  1  2  1  0  0  0  0
  2  3  1  0  0  0  0
  3  4  1  0  0  0  0
  2  5  1  0  0  0  0
M  END
>  <BIO>
129.00

$$$$
Unnamed
  -MTS-   06200418053D 0   0.00000     0.00000     0

  5  4  0  0  0  0  0  0  0  0  1 V2000
    0.0560    0.0550    0.0000 S   0  0  0  0  0  0  0  0  0  0  0  0
    1.8710   -0.0770    0.0000 C   0  0  0  0  0  0  0  0  0  0  0  0
    2.2740   -1.5510    0.0000 C   0  0  0  0  0  0  0  0  0  0  0  0
    3.7980   -1.6620    0.0000 C   0  0  0  0  0  0  0  0  0  0  0  0
    4.1620   -2.9940    0.0000 F   0  0  0  0  0  0  0  0  0  0  0  0
  1  2  1  0  0  0  0
  2  3  1  0  0  0  0
  3  4  1  0  0  0  0
  4  5  1  0  0  0  0
M  END
>  <BIO>
3.90

$$$$
Unnamed
  -MTS-   06200418053D 0   0.00000     0.00000     0

  5  4  0  0  0  0  0  0  0  0  1 V2000
    0.0560    0.0550    0.0000 S   0  0  0  0  0  0  0  0  0  0  0  0
    1.8710   -0.0770    0.0000 C   0  0  0  0  0  0  0  0  0  0  0  0
    2.2740   -1.5510    0.0000 C   0  0  0  0  0  0  0  0  0  0  0  0
    3.7980   -1.6630    0.0000 C   0  0  0  0  0  0  0  0  0  0  0  0
    4.2650   -3.3700    0.0000 Cl  0  0  0  0  0  0  0  0  0  0  0  0
  1  2  1  0  0  0  0
  2  3  1  0  0  0  0
  3  4  1  0  0  0  0
  4  5  1  0  0  0  0
M  END
>  <BIO>
15.00

$$$$
Unnamed
  -MTS-   06200418053D 0   0.00000     0.00000     0

  6  5  0  0  0  0  0  0  0  0  1 V2000
    0.0560    0.0550    0.0000 S   0  0  0  0  0  0  0  0  0  0  0  0
    1.8710   -0.0770    0.0000 C   0  0  0  0  0  0  0  0  0  0  0  0
    2.2690   -1.5340    0.0000 C   0  0  0  0  0  0  0  0  0  0  0  0
    3.5650   -1.8740    0.0000 C   0  0  0  0  0  0  0  0  0  0  0  0
    3.9630   -3.3300    0.0000 C   0  0  0  0  0  0  0  0  0  0  0  0
    4.6270   -0.8010    0.0000 C   0  0  0  0  0  0  0  0  0  0  0  0
  1  2  1  0  0  0  0
  2  3  1  0  0  0  0
  3  4  2  0  0  0  0
  4  5  1  0  0  0  0
  4  6  1  0  0  0  0
M  END
>  <BIO>
271.00

$$$$
Unnamed
  -MTS-   06200418053D 0   0.00000     0.00000     0

  5  4  0  0  0  0  0  0  0  0  1 V2000
    0.0560    0.0550    0.0000 S   0  0  0  0  0  0  0  0  0  0  0  0
    1.8710   -0.0770    0.0000 C   0  0  0  0  0  0  0  0  0  0  0  0
    2.2740   -1.5510    0.0000 C   0  0  0  0  0  0  0  0  0  0  0  0
    3.7960   -1.6620    0.0000 C   0  0  0  0  0  0  0  0  0  0  0  0
    1.7140   -2.2310   -1.2460 C   0  0  0  0  0  0  0  0  0  0  0  0
  1  2  1  0  0  0  0
  2  3  1  0  0  0  0
  3  4  1  0  0  0  0
  3  5  1  0  0  0  0
M  END
>  <BIO>
42.00

$$$$
Unnamed
  -MTS-   06200418053D 0   0.00000     0.00000     0

  4  3  0  0  0  0  0  0  0  0  1 V2000
    0.0560    0.0550    0.0000 S   0  0  0  0  0  0  0  0  0  0  0  0
    1.8710   -0.0770    0.0000 C   0  0  0  0  0  0  0  0  0  0  0  0
    2.2560   -1.4860    0.0000 C   0  0  0  0  0  0  0  0  0  0  0  0
    2.5720   -2.6430    0.0000 C   0  0  0  0  0  0  0  0  0  0  0  0
  1  2  1  0  0  0  0
  2  3  1  0  0  0  0
  3  4  3  0  0  0  0
M  END
>  <BIO>
48.00

$$$$
