Unnamed
  -MTS-   06200418073D 0   0.00000     0.00000     0

  3  2  0  0  0  0  0  0  0  0  1 V2000
    0.0740    0.0520    0.0000 S   0  0  0  0  0  0  0  0  0  0  0  0
    1.8400   -0.0690    0.0000 C   0  0  0  0  0  0  0  0  0  0  0  0
    2.3660   -1.1420    0.0000 O   0  0  0  0  0  0  0  0  0  0  0  0
  1  2  1  0  0  0  0
  2  3  2  0  0  0  0
M  END
>  <BIO>
3500.00

$$$$
Unnamed
  -MTS-   06200418073D 0   0.00000     0.00000     0

  4  3  0  0  0  0  0  0  0  0  1 V2000
    0.0740    0.0520    0.0000 S   0  0  0  0  0  0  0  0  0  0  0  0
    1.8400   -0.0690    0.0000 C   0  0  0  0  0  0  0  0  0  0  0  0
    2.5260    0.9520    0.0000 O   0  0  0  0  0  0  0  0  0  0  0  0
    2.5040   -1.4250    0.0000 C   0  0  0  0  0  0  0  0  0  0  0  0
  1  2  1  0  0  0  0
  2  3  2  0  0  0  0
  2  4  1  0  0  0  0
M  END
>  <BIO>
370.00

$$$$
Unnamed
  -MTS-   06200418073D 0   0.00000     0.00000     0

  5  4  0  0  0  0  0  0  0  0  1 V2000
    0.0740    0.0520    0.0000 S   0  0  0  0  0  0  0  0  0  0  0  0
    1.8400   -0.0690    0.0000 C   0  0  0  0  0  0  0  0  0  0  0  0
    2.5260    0.9520    0.0000 O   0  0  0  0  0  0  0  0  0  0  0  0
    2.5040   -1.4250    0.0000 C   0  0  0  0  0  0  0  0  0  0  0  0
    4.0200   -1.2490    0.0000 C   0  0  0  0  0  0  0  0  0  0  0  0
  1  2  1  0  0  0  0
  2  3  2  0  0  0  0
  2  4  1  0  0  0  0
  4  5  1  0  0  0  0
M  END
>  <BIO>
92.00

$$$$
Unnamed
  -MTS-   06200418073D 0   0.00000     0.00000     0

  6  5  0  0  0  0  0  0  0  0  1 V2000
    0.0740    0.0520    0.0000 S   0  0  0  0  0  0  0  0  0  0  0  0
    1.8400   -0.0690    0.0000 C   0  0  0  0  0  0  0  0  0  0  0  0
    2.5260    0.9520    0.0000 O   0  0  0  0  0  0  0  0  0  0  0  0
    2.5040   -1.4250    0.0000 C   0  0  0  0  0  0  0  0  0  0  0  0
    4.0220   -1.2490    0.0000 C   0  0  0  0  0  0  0  0  0  0  0  0
    4.6930   -2.6190    0.0000 C   0  0  0  0  0  0  0  0  0  0  0  0
  1  2  1  0  0  0  0
  2  3  2  0  0  0  0
  2  4  1  0  0  0  0
  4  5  1  0  0  0  0
  5  6  1  0  0  0  0
M  END
>  <BIO>
150.00

$$$$
Unnamed
  -MTS-   06200418073D 0   0.00000     0.00000     0

  6  5  0  0  0  0  0  0  0  0  1 V2000
    0.0740    0.0520    0.0000 S   0  0  0  0  0  0  0  0  0  0  0  0
    1.8400   -0.0690    0.0000 C   0  0  0  0  0  0  0  0  0  0  0  0
    2.5260    0.9520    0.0000 O   0  0  0  0  0  0  0  0  0  0  0  0
    2.5040   -1.4250    0.0000 C   0  0  0  0  0  0  0  0  0  0  0  0
    4.0200   -1.2490    0.0000 C   0  0  0  0  0  0  0  0  0  0  0  0
    2.0820   -2.1980    1.2460 C   0  0  0  0  0  0  0  0  0  0  0  0
  1  2  1  0  0  0  0
  2  3  2  0  0  0  0
  2  4  1  0  0  0  0
  4  5  1  0  0  0  0
  4  6  1  0  0  0  0
M  END
>  <BIO>
83.00

$$$$
Unnamed
  -MTS-   06200418073D 0   0.00000     0.00000     0

  8  7  0  0  0  0  0  0  0  0  1 V2000
    0.0740    0.0520    0.0000 S   0  0  0  0  0  0  0  0  0  0  0  0
    1.8400   -0.0690    0.0000 C   0  0  0  0  0  0  0  0  0  0  0  0
    2.5260    0.9520    0.0000 O   0  0  0  0  0  0  0  0  0  0  0  0
    2.5040   -1.4250    0.0000 C   0  0  0  0  0  0  0  0  0  0  0  0
    2.0820   -2.1980   -1.2460 C   0  0  0  0  0  0  0  0  0  0  0  0
    2.0820   -2.1980    1.2460 C   0  0  0  0  0  0  0  0  0  0  0  0
    4.0040   -1.2510    0.0000 C   0  0  0  0  0  0  0  0  0  0  0  0
    4.8030   -2.3260    0.0000 C   0  0  0  0  0  0  0  0  0  0  0  0
  1  2  1  0  0  0  0
  2  3  2  0  0  0  0
  2  4  1  0  0  0  0
  4  5  1  0  0  0  0
  4  6  1  0  0  0  0
  4  7  1  0  0  0  0
  7  8  2  0  0  0  0
M  END
>  <BIO>
270.00

$$$$
Unnamed
  -MTS-   06200418073D 0   0.00000     0.00000     0

  4  3  0  0  0  0  0  0  0  0  1 V2000
    0.0560    0.0560    0.0000 S   0  0  0  0  0  0  0  0  0  0  0  0
    1.8710   -0.0770    0.0000 C   0  0  0  0  0  0  0  0  0  0  0  0
    2.3950    0.5600    1.1680 O   0  0  0  0  0  0  0  0  0  0  0  0
    2.2730   -1.5490    0.0000 C   0  0  0  0  0  0  0  0  0  0  0  0
  1  2  1  0  0  0  0
  2  3  1  0  0  0  0
  2  4  1  0  0  0  0
M  END
>  <BIO>
13300.00

$$$$
Unnamed
  -MTS-   06200418073D 0   0.00000     0.00000     0

  6  5  0  0  0  0  0  0  0  0  1 V2000
    0.0560    0.0550    0.0000 S   0  0  0  0  0  0  0  0  0  0  0  0
    1.8710   -0.0770    0.0000 C   0  0  0  0  0  0  0  0  0  0  0  0
    2.3950    0.5600    1.1680 O   0  0  0  0  0  0  0  0  0  0  0  0
    2.2740   -1.5510    0.0000 C   0  0  0  0  0  0  0  0  0  0  0  0
    3.7960   -1.6620    0.0000 C   0  0  0  0  0  0  0  0  0  0  0  0
    1.7140   -2.2320   -1.2460 C   0  0  0  0  0  0  0  0  0  0  0  0
  1  2  1  0  0  0  0
  2  3  1  0  0  0  0
  2  4  1  0  0  0  0
  4  5  1  0  0  0  0
  4  6  1  0  0  0  0
M  END
>  <BIO>
2700.00

$$$$
