Unnamed
  -MTS-   06200418083D 0   0.00000     0.00000     0

  6  6  0  0  0  0  0  0  0  0  1 V2000
   -0.0170    0.1360    0.0000 S   0  0  0  0  0  0  0  0  0  0  0  0
    1.7540    0.0400    0.0000 C   0  0  0  0  0  0  0  0  0  0  0  0
    2.4280    0.0030   -1.1620 N   0  0  0  0  0  0  0  0  0  0  0  0
    3.6580   -0.0640   -0.6930 C   0  0  0  0  0  0  0  0  0  0  0  0
    3.2920   -0.0440    0.6490 C   0  0  0  0  0  0  0  0  0  0  0  0
    2.2700    0.0120    0.9180 S   0  0  0  0  0  0  0  0  0  0  0  0
  1  2  1  0  0  0  0
  2  3  2  0  0  0  0
  3  4  1  0  0  0  0
  4  5  2  0  0  0  0
  5  6  1  0  0  0  0
  6  2  1  0  0  0  0
M  END
>  <BIO>
5.00

$$$$
Unnamed
  -MTS-   06200418083D 0   0.00000     0.00000     0

  6  6  0  0  0  0  0  0  0  0  1 V2000
   -0.0140    0.1400    0.0000 S   0  0  0  0  0  0  0  0  0  0  0  0
    1.7600    0.0340    0.0000 C   0  0  0  0  0  0  0  0  0  0  0  0
    2.4680   -0.0090   -1.1990 C   0  0  0  0  0  0  0  0  0  0  0  0
    3.6620   -0.0760   -0.6440 N   0  0  0  0  0  0  0  0  0  0  0  0
    3.2990   -0.0530    0.6490 C   0  0  0  0  0  0  0  0  0  0  0  0
    2.2750    0.0030    0.9180 S   0  0  0  0  0  0  0  0  0  0  0  0
  1  2  1  0  0  0  0
  2  3  2  0  0  0  0
  3  4  1  0  0  0  0
  4  5  2  0  0  0  0
  5  6  1  0  0  0  0
  6  2  1  0  0  0  0
M  END
>  <BIO>
1090.00

$$$$
Unnamed
  -MTS-   06200418083D 0   0.00000     0.00000     0

  6  6  0  0  0  0  0  0  0  0  1 V2000
   -0.0210    0.1320    0.0000 S   0  0  0  0  0  0  0  0  0  0  0  0
    1.7480    0.0470    0.0000 C   0  0  0  0  0  0  0  0  0  0  0  0
    2.7060    0.0010    0.9020 N   0  0  0  0  0  0  0  0  0  0  0  0
    3.7590   -0.0510    0.0670 C   0  0  0  0  0  0  0  0  0  0  0  0
    3.6240   -0.0450   -0.9780 S   0  0  0  0  0  0  0  0  0  0  0  0
    2.5750    0.0050   -1.1150 C   0  0  0  0  0  0  0  0  0  0  0  0
  1  2  1  0  0  0  0
  2  3  1  0  0  0  0
  3  4  2  0  0  0  0
  4  5  1  0  0  0  0
  5  6  1  0  0  0  0
  6  2  2  0  0  0  0
M  END
>  <BIO>
6.20

$$$$
Unnamed
  -MTS-   06200418083D 0   0.00000     0.00000     0

  6  6  0  0  0  0  0  0  0  0  1 V2000
   -0.0210    0.1360    0.0000 S   0  0  0  0  0  0  0  0  0  0  0  0
    1.7580    0.0400    0.0000 C   0  0  0  0  0  0  0  0  0  0  0  0
    2.4600    0.0000   -1.0600 N   0  0  0  0  0  0  0  0  0  0  0  0
    3.8610   -0.0920   -0.7170 C   0  0  0  0  0  0  0  0  0  0  0  0
    4.0590    0.4920    0.7020 C   0  0  0  0  0  0  0  0  0  0  0  0
    2.5570   -0.0020    1.5840 S   0  0  0  0  0  0  0  0  0  0  0  0
  1  2  1  0  0  0  0
  2  3  2  0  0  0  0
  3  4  1  0  0  0  0
  4  5  1  0  0  0  0
  5  6  1  0  0  0  0
  6  2  1  0  0  0  0
M  END
>  <BIO>
3.80

$$$$
Unnamed
  -MTS-   06200418083D 0   0.00000     0.00000     0

  6  6  0  0  0  0  0  0  0  0  1 V2000
   -0.0160    0.1360    0.0000 S   0  0  0  0  0  0  0  0  0  0  0  0
    1.7550    0.0390    0.0000 C   0  0  0  0  0  0  0  0  0  0  0  0
    2.2790    0.0040   -0.9240 S   0  0  0  0  0  0  0  0  0  0  0  0
    3.2950   -0.0440   -0.6700 C   0  0  0  0  0  0  0  0  0  0  0  0
    3.6990   -0.0580    0.6630 C   0  0  0  0  0  0  0  0  0  0  0  0
    2.4450    0.0010    1.2090 C   0  0  0  0  0  0  0  0  0  0  0  0
  1  2  1  0  0  0  0
  2  3  1  0  0  0  0
  3  4  1  0  0  0  0
  4  5  2  0  0  0  0
  5  6  1  0  0  0  0
  6  2  2  0  0  0  0
M  END
>  <BIO>
1260.00

$$$$
Unnamed
  -MTS-   06200418083D 0   0.00000     0.00000     0

 10 11  0  0  0  0  0  0  0  0  1 V2000
   -0.0170    0.1360    0.0000 S   0  0  0  0  0  0  0  0  0  0  0  0
    1.7540    0.0400    0.0000 C   0  0  0  0  0  0  0  0  0  0  0  0
    2.4260    0.0000   -1.1660 N   0  0  0  0  0  0  0  0  0  0  0  0
    3.6500   -0.0700   -0.6850 C   0  0  0  0  0  0  0  0  0  0  0  0
    4.9440   -0.1460   -1.1950 C   0  0  0  0  0  0  0  0  0  0  0  0
    5.9670   -0.2050   -0.2430 C   0  0  0  0  0  0  0  0  0  0  0  0
    5.6620   -0.1850    1.1260 C   0  0  0  0  0  0  0  0  0  0  0  0
    4.3400   -0.1070    1.5900 C   0  0  0  0  0  0  0  0  0  0  0  0
    3.2950   -0.0480    0.6540 C   0  0  0  0  0  0  0  0  0  0  0  0
    2.2710    0.0120    0.9280 S   0  0  0  0  0  0  0  0  0  0  0  0
  1  2  1  0  0  0  0
  2  3  2  0  0  0  0
  3  4  1  0  0  0  0
  4  5  2  0  0  0  0
  5  6  1  0  0  0  0
  6  7  2  0  0  0  0
  7  8  1  0  0  0  0
  8  9  2  0  0  0  0
  9  4  1  0  0  0  0
  9 10  1  0  0  0  0
 10  2  1  0  0  0  0
M  END
>  <BIO>
4.00

$$$$
Unnamed
  -MTS-   06200418083D 0   0.00000     0.00000     0

  7  7  0  0  0  0  0  0  0  0  1 V2000
   -0.0180    0.1360    0.0000 S   0  0  0  0  0  0  0  0  0  0  0  0
    1.7540    0.0410    0.0000 C   0  0  0  0  0  0  0  0  0  0  0  0
    2.4240    0.0060   -1.1720 N   0  0  0  0  0  0  0  0  0  0  0  0
    3.7710   -0.0620   -1.2140 C   0  0  0  0  0  0  0  0  0  0  0  0
    4.5150   -0.1000   -0.0320 C   0  0  0  0  0  0  0  0  0  0  0  0
    3.8470   -0.0680    1.1940 C   0  0  0  0  0  0  0  0  0  0  0  0
    2.4510    0.0030    1.2110 C   0  0  0  0  0  0  0  0  0  0  0  0
  1  2  1  0  0  0  0
  2  3  1  0  0  0  0
  3  4  2  0  0  0  0
  4  5  1  0  0  0  0
  5  6  2  0  0  0  0
  6  7  1  0  0  0  0
  7  2  2  0  0  0  0
M  END
>  <BIO>
6.90

$$$$
Unnamed
  -MTS-   06200418083D 0   0.00000     0.00000     0

  7  7  0  0  0  0  0  0  0  0  1 V2000
   -0.0210    0.1330    0.0000 S   0  0  0  0  0  0  0  0  0  0  0  0
    1.7510    0.0450    0.0000 C   0  0  0  0  0  0  0  0  0  0  0  0
    2.4580    0.0010   -1.2060 C   0  0  0  0  0  0  0  0  0  0  0  0
    3.8050   -0.0640   -1.2050 N   0  0  0  0  0  0  0  0  0  0  0  0
    4.5090   -0.0830   -0.0530 C   0  0  0  0  0  0  0  0  0  0  0  0
    3.8510   -0.0530    1.1790 C   0  0  0  0  0  0  0  0  0  0  0  0
    2.4560    0.0100    1.2060 C   0  0  0  0  0  0  0  0  0  0  0  0
  1  2  1  0  0  0  0
  2  3  2  0  0  0  0
  3  4  1  0  0  0  0
  4  5  2  0  0  0  0
  5  6  1  0  0  0  0
  6  7  2  0  0  0  0
  7  2  1  0  0  0  0
M  END
>  <BIO>
2290.00

$$$$
Unnamed
  -MTS-   06200418083D 0   0.00000     0.00000     0

  7  7  0  0  0  0  0  0  0  0  1 V2000
   -0.0220    0.1330    0.0000 S   0  0  0  0  0  0  0  0  0  0  0  0
    1.7500    0.0460    0.0000 C   0  0  0  0  0  0  0  0  0  0  0  0
    2.4620    0.0110    1.2010 C   0  0  0  0  0  0  0  0  0  0  0  0
    3.8090   -0.0370    1.1730 N   0  0  0  0  0  0  0  0  0  0  0  0
    4.4760   -0.0490    0.0000 C   0  0  0  0  0  0  0  0  0  0  0  0
    3.8100   -0.0230   -1.1730 N   0  0  0  0  0  0  0  0  0  0  0  0
    2.4620    0.0260   -1.2010 C   0  0  0  0  0  0  0  0  0  0  0  0
  1  2  1  0  0  0  0
  2  3  2  0  0  0  0
  3  4  1  0  0  0  0
  4  5  2  0  0  0  0
  5  6  1  0  0  0  0
  6  7  2  0  0  0  0
  7  2  1  0  0  0  0
M  END
>  <BIO>
61.00

$$$$
Unnamed
  -MTS-   06200418083D 0   0.00000     0.00000     0

  6  6  0  0  0  0  0  0  0  0  1 V2000
   -0.0190    0.1330    0.0000 S   0  0  0  0  0  0  0  0  0  0  0  0
    1.7490    0.0450    0.0000 C   0  0  0  0  0  0  0  0  0  0  0  0
    2.5790    0.0040   -1.0600 N   0  0  0  0  0  0  0  0  0  0  0  0
    3.8540   -0.0590   -0.6290 C   0  0  0  0  0  0  0  0  0  0  0  0
    3.8440   -0.0590    0.7660 C   0  0  0  0  0  0  0  0  0  0  0  0
    2.5100    0.0070    1.1670 C   0  0  0  0  0  0  0  0  0  0  0  0
  1  2  1  0  0  0  0
  2  3  1  0  0  0  0
  3  4  2  0  0  0  0
  4  5  2  0  0  0  0
  5  6  1  0  0  0  0
  6  2  2  0  0  0  0
M  END
>  <BIO>
21300.00

$$$$
Unnamed
  -MTS-   06200418083D 0   0.00000     0.00000     0

  6  6  0  0  0  0  0  0  0  0  1 V2000
   -0.0220    0.1350    0.0000 S   0  0  0  0  0  0  0  0  0  0  0  0
    1.7570    0.0410    0.0000 C   0  0  0  0  0  0  0  0  0  0  0  0
    2.4790    0.0040   -1.1350 N   0  0  0  0  0  0  0  0  0  0  0  0
    3.7220   -0.0620   -0.6660 C   0  0  0  0  0  0  0  0  0  0  0  0
    3.3970   -0.0450    0.6860 C   0  0  0  0  0  0  0  0  0  0  0  0
    2.3640    0.0090    0.8460 N   0  0  0  0  0  0  0  0  0  0  0  0
  1  2  1  0  0  0  0
  2  3  2  0  0  0  0
  3  4  1  0  0  0  0
  4  5  2  0  0  0  0
  5  6  1  0  0  0  0
  6  2  1  0  0  0  0
M  END
>  <BIO>
9.00

$$$$
Unnamed
  -MTS-   06200418083D 0   0.00000     0.00000     0

 10 11  0  0  0  0  0  0  0  0  1 V2000
   -0.0180    0.1350    0.0000 S   0  0  0  0  0  0  0  0  0  0  0  0
    1.7510    0.0420    0.0000 C   0  0  0  0  0  0  0  0  0  0  0  0
    2.4740    0.0020   -1.1390 N   0  0  0  0  0  0  0  0  0  0  0  0
    3.6990   -0.0640   -0.6360 C   0  0  0  0  0  0  0  0  0  0  0  0
    5.0120   -0.1360   -1.0940 C   0  0  0  0  0  0  0  0  0  0  0  0
    5.9980   -0.1890   -0.1010 C   0  0  0  0  0  0  0  0  0  0  0  0
    5.6510   -0.1700    1.2590 C   0  0  0  0  0  0  0  0  0  0  0  0
    4.3130   -0.0970    1.6750 C   0  0  0  0  0  0  0  0  0  0  0  0
    3.3200   -0.0430    0.6930 C   0  0  0  0  0  0  0  0  0  0  0  0
    2.3040    0.0140    0.8960 O   0  0  0  0  0  0  0  0  0  0  0  0
  1  2  1  0  0  0  0
  2  3  2  0  0  0  0
  3  4  1  0  0  0  0
  4  5  2  0  0  0  0
  5  6  1  0  0  0  0
  6  7  2  0  0  0  0
  7  8  1  0  0  0  0
  8  9  2  0  0  0  0
  9  4  1  0  0  0  0
  9 10  1  0  0  0  0
 10  2  1  0  0  0  0
M  END
>  <BIO>
5.50

$$$$
Unnamed
  -MTS-   06200418083D 0   0.00000     0.00000     0

  6  5  0  0  0  0  0  0  0  0  1 V2000
   -0.0200    0.1370    0.0000 S   0  0  0  0  0  0  0  0  0  0  0  0
    1.7600    0.0380    0.0000 C   0  0  0  0  0  0  0  0  0  0  0  0
    2.4580    1.0410    0.0000 O   0  0  0  0  0  0  0  0  0  0  0  0
    2.2920   -1.1950    0.0000 O   0  0  0  0  0  0  0  0  0  0  0  0
    3.7340   -1.2280    0.0000 C   0  0  0  0  0  0  0  0  0  0  0  0
    4.1890   -2.7070    0.0000 C   0  0  0  0  0  0  0  0  0  0  0  0
  1  2  1  0  0  0  0
  2  3  2  0  0  0  0
  2  4  1  0  0  0  0
  4  5  1  0  0  0  0
  5  6  1  0  0  0  0
M  END
>  <BIO>
10.30

$$$$
