Unnamed
  -MTS-   06200418083D 0   0.00000     0.00000     0

  3  2  0  0  0  0  0  0  0  0  1 V2000
    0.1080    0.0460    0.0000 S   0  0  0  0  0  0  0  0  0  0  0  0
    1.7850   -0.0540    0.0000 C   0  0  0  0  0  0  0  0  0  0  0  0
    2.9420   -0.1230    0.0000 N   0  0  0  0  0  0  0  0  0  0  0  0
  1  2  1  0  0  0  0
  2  3  3  0  0  0  0
M  END
>  <BIO>
288.00

$$$$
Unnamed
  -MTS-   06200418083D 0   0.00000     0.00000     0

  3  2  0  0  0  0  0  0  0  0  1 V2000
    0.0560    0.0550    0.0000 S   0  0  0  0  0  0  0  0  0  0  0  0
    1.8710   -0.0770    0.0000 C   0  0  0  0  0  0  0  0  0  0  0  0
    2.2590   -1.4950    0.0000 N   0  0  0  0  0  0  0  0  0  0  0  0
  1  2  1  0  0  0  0
  2  3  1  0  0  0  0
M  END
>  <BIO>
167.00

$$$$
Unnamed
  -MTS-   06200418083D 0   0.00000     0.00000     0

  5  4  0  0  0  0  0  0  0  0  1 V2000
    0.0740    0.0520    0.0000 S   0  0  0  0  0  0  0  0  0  0  0  0
    1.8400   -0.0690    0.0000 C   0  0  0  0  0  0  0  0  0  0  0  0
    2.4200   -1.2540    0.0000 N   0  0  0  0  0  0  0  0  0  0  0  0
    1.6390   -2.4160    0.0000 O   0  0  0  0  0  0  0  0  0  0  0  0
    2.5990    1.0600    0.0000 N   0  0  0  0  0  0  0  0  0  0  0  0
  1  2  1  0  0  0  0
  2  3  2  0  0  0  0
  3  4  1  0  0  0  0
  2  5  1  0  0  0  0
M  END
>  <BIO>
71.00

$$$$
Unnamed
  -MTS-   06200418083D 0   0.00000     0.00000     0

  4  3  0  0  0  0  0  0  0  0  1 V2000
    0.0740    0.0520    0.0000 S   0  0  0  0  0  0  0  0  0  0  0  0
    1.8400   -0.0690    0.0000 C   0  0  0  0  0  0  0  0  0  0  0  0
    2.5770    1.0270    0.0000 N   0  0  0  0  0  0  0  0  0  0  0  0
    2.4380   -1.2900    0.0000 N   0  0  0  0  0  0  0  0  0  0  0  0
  1  2  1  0  0  0  0
  2  3  2  0  0  0  0
  2  4  1  0  0  0  0
M  END
>  <BIO>
33.00

$$$$
Unnamed
  -MTS-   06200418083D 0   0.00000     0.00000     0

  5  4  0  0  0  0  0  0  0  0  1 V2000
    0.1080    0.0460    0.0000 S   0  0  0  0  0  0  0  0  0  0  0  0
    1.7850   -0.0540    0.0000 C   0  0  0  0  0  0  0  0  0  0  0  0
    2.9820   -0.1250    0.0000 C   0  0  0  0  0  0  0  0  0  0  0  0
    4.4400   -0.2120    0.0000 C   0  0  0  0  0  0  0  0  0  0  0  0
    4.8470   -1.6240    0.0000 N   0  0  0  0  0  0  0  0  0  0  0  0
  1  2  1  0  0  0  0
  2  3  3  0  0  0  0
  3  4  1  0  0  0  0
  4  5  1  0  0  0  0
M  END
>  <BIO>
75.00

$$$$
Unnamed
  -MTS-   06200418083D 0   0.00000     0.00000     0

  6  5  0  0  0  0  0  0  0  0  1 V2000
    0.1080    0.0460    0.0000 S   0  0  0  0  0  0  0  0  0  0  0  0
    1.7850   -0.0540    0.0000 C   0  0  0  0  0  0  0  0  0  0  0  0
    2.9820   -0.1250    0.0000 C   0  0  0  0  0  0  0  0  0  0  0  0
    4.3100   -0.2040    0.0000 N   0  0  0  0  0  0  0  0  0  0  0  0
    4.7580   -0.9250    1.2000 C   0  0  0  0  0  0  0  0  0  0  0  0
    4.7580   -0.9250   -1.2000 C   0  0  0  0  0  0  0  0  0  0  0  0
  1  2  1  0  0  0  0
  2  3  3  0  0  0  0
  3  4  1  0  0  0  0
  4  5  1  0  0  0  0
  4  6  1  0  0  0  0
M  END
>  <BIO>
1331.00

$$$$
Unnamed
  -MTS-   06200418083D 0   0.00000     0.00000     0

  7  6  0  0  0  0  0  0  0  0  1 V2000
    0.0560    0.0550    0.0000 S   0  0  0  0  0  0  0  0  0  0  0  0
    1.8710   -0.0770    0.0000 C   0  0  0  0  0  0  0  0  0  0  0  0
    2.2740   -1.5510    0.0000 C   0  0  0  0  0  0  0  0  0  0  0  0
    3.7980   -1.6630    0.0000 C   0  0  0  0  0  0  0  0  0  0  0  0
    4.1850   -3.0810    0.0000 N   0  0  0  0  0  0  0  0  0  0  0  0
    5.6510   -3.1880    0.0000 C   0  0  0  0  0  0  0  0  0  0  0  0
    3.6460   -3.7360   -1.2000 C   0  0  0  0  0  0  0  0  0  0  0  0
  1  2  1  0  0  0  0
  2  3  1  0  0  0  0
  3  4  1  0  0  0  0
  4  5  1  0  0  0  0
  5  6  1  0  0  0  0
  5  7  1  0  0  0  0
M  END
>  <BIO>
1494.00

$$$$
Unnamed
  -MTS-   06200418083D 0   0.00000     0.00000     0

  6  5  0  0  0  0  0  0  0  0  1 V2000
    0.0740    0.0520    0.0000 S   0  0  0  0  0  0  0  0  0  0  0  0
    1.8400   -0.0690    0.0000 C   0  0  0  0  0  0  0  0  0  0  0  0
    2.5070    0.9230    0.0000 O   0  0  0  0  0  0  0  0  0  0  0  0
    2.4160   -1.2450    0.0000 O   0  0  0  0  0  0  0  0  0  0  0  0
    3.8450   -1.2930    0.0000 C   0  0  0  0  0  0  0  0  0  0  0  0
    4.3050   -2.7480    0.0000 C   0  0  0  0  0  0  0  0  0  0  0  0
  1  2  1  0  0  0  0
  2  3  2  0  0  0  0
  2  4  1  0  0  0  0
  4  5  1  0  0  0  0
  5  6  1  0  0  0  0
M  END
>  <BIO>
949.00

$$$$
Unnamed
  -MTS-   06200418083D 0   0.00000     0.00000     0

  9  8  0  0  0  0  0  0  0  0  1 V2000
    0.0740    0.0520    0.0000 S   0  0  0  0  0  0  0  0  0  0  0  0
    1.8400   -0.0690    0.0000 C   0  0  0  0  0  0  0  0  0  0  0  0
    2.5260    0.9520    0.0000 O   0  0  0  0  0  0  0  0  0  0  0  0
    2.4250   -1.2630    0.0000 N   0  0  0  0  0  0  0  0  0  0  0  0
    3.8910   -1.3630    0.0000 C   0  0  0  0  0  0  0  0  0  0  0  0
    4.3010   -2.8350    0.0000 C   0  0  0  0  0  0  0  0  0  0  0  0
    5.7680   -2.9360    0.0000 N   0  0  0  0  0  0  0  0  0  0  0  0
    6.1620   -4.3520    0.0000 C   0  0  0  0  0  0  0  0  0  0  0  0
    6.3040   -2.2780   -1.2000 C   0  0  0  0  0  0  0  0  0  0  0  0
  1  2  1  0  0  0  0
  2  3  2  0  0  0  0
  2  4  1  0  0  0  0
  4  5  1  0  0  0  0
  5  6  1  0  0  0  0
  6  7  1  0  0  0  0
  7  8  1  0  0  0  0
  7  9  1  0  0  0  0
M  END
>  <BIO>
9328.00

$$$$
