Unnamed
  -MTS-   06200418093D 0   0.00000     0.00000     0

 14 14  0  0  0  0  0  0  0  0  1 V2000
    0.0180   -0.0030    0.0000 S   0  0  0  0  0  0  0  0  0  0  0  0
    1.7880    0.0070    0.0000 C   0  0  0  0  0  0  0  0  0  0  0  0
    2.4880    0.0110    1.2120 C   0  0  0  0  0  0  0  0  0  0  0  0
    1.4630    0.0050    2.9880 I   0  0  0  0  0  0  0  0  0  0  0  0
    3.8880    0.0200    1.2120 C   0  0  0  0  0  0  0  0  0  0  0  0
    4.5880    0.0240    0.0000 C   0  0  0  0  0  0  0  0  0  0  0  0
    6.0030    0.0320    0.0000 N   0  0  0  0  0  0  0  0  0  0  0  0
    6.4850    1.4210    0.0000 C   0  0  0  0  0  0  0  0  0  0  0  0
    7.9950    1.4300    0.0000 C   0  0  0  0  0  0  0  0  0  0  0  0
    8.6110    0.3770    0.0000 O   0  0  0  0  0  0  0  0  0  0  0  0
    8.6430    2.5680    0.0000 O   0  0  0  0  0  0  0  0  0  0  0  0
    3.8880    0.0200   -1.2130 C   0  0  0  0  0  0  0  0  0  0  0  0
    2.4880    0.0120   -1.2130 C   0  0  0  0  0  0  0  0  0  0  0  0
    1.4630    0.0050   -2.9880 I   0  0  0  0  0  0  0  0  0  0  0  0
  1  2  1  0  0  0  0
  2  3  2  0  0  0  0
  3  4  1  0  0  0  0
  3  5  1  0  0  0  0
  5  6  2  0  0  0  0
  6  7  1  0  0  0  0
  7  8  1  0  0  0  0
  8  9  1  0  0  0  0
  9 10  2  0  0  0  0
  9 11  1  0  0  0  0
  6 12  1  0  0  0  0
 12 13  2  0  0  0  0
 13  2  1  0  0  0  0
 13 14  1  0  0  0  0
M  END
>  <BIO>
0.31

$$$$
Unnamed
  -MTS-   06200418093D 0   0.00000     0.00000     0

 14 14  0  0  0  0  0  0  0  0  1 V2000
    0.0180   -0.0030    0.0000 S   0  0  0  0  0  0  0  0  0  0  0  0
    1.7880    0.0070    0.0000 C   0  0  0  0  0  0  0  0  0  0  0  0
    2.4880    0.0120    1.2120 C   0  0  0  0  0  0  0  0  0  0  0  0
    1.7330    0.0070    2.5200 C   0  0  0  0  0  0  0  0  0  0  0  0
    3.8880    0.0200    1.2120 C   0  0  0  0  0  0  0  0  0  0  0  0
    4.5880    0.0240    0.0000 C   0  0  0  0  0  0  0  0  0  0  0  0
    6.0030    0.0330    0.0000 N   0  0  0  0  0  0  0  0  0  0  0  0
    6.4850    1.4220    0.0000 C   0  0  0  0  0  0  0  0  0  0  0  0
    7.9950    1.4310    0.0000 C   0  0  0  0  0  0  0  0  0  0  0  0
    8.6110    0.3780    0.0000 O   0  0  0  0  0  0  0  0  0  0  0  0
    8.6430    2.5690    0.0000 O   0  0  0  0  0  0  0  0  0  0  0  0
    3.8880    0.0200   -1.2120 C   0  0  0  0  0  0  0  0  0  0  0  0
    2.4880    0.0120   -1.2120 C   0  0  0  0  0  0  0  0  0  0  0  0
    1.7330    0.0070   -2.5200 C   0  0  0  0  0  0  0  0  0  0  0  0
  1  2  1  0  0  0  0
  2  3  2  0  0  0  0
  3  4  1  0  0  0  0
  3  5  1  0  0  0  0
  5  6  2  0  0  0  0
  6  7  1  0  0  0  0
  7  8  1  0  0  0  0
  8  9  1  0  0  0  0
  9 10  2  0  0  0  0
  9 11  1  0  0  0  0
  6 12  1  0  0  0  0
 12 13  2  0  0  0  0
 13  2  1  0  0  0  0
 13 14  1  0  0  0  0
M  END
>  <BIO>
12.00

$$$$
Unnamed
  -MTS-   06200418093D 0   0.00000     0.00000     0

 14 14  0  0  0  0  0  0  0  0  1 V2000
    0.0180   -0.0030    0.0000 S   0  0  0  0  0  0  0  0  0  0  0  0
    1.7880    0.0070    0.0000 C   0  0  0  0  0  0  0  0  0  0  0  0
    2.4880    0.0120    1.2120 C   0  0  0  0  0  0  0  0  0  0  0  0
    1.6380    0.0060    2.6850 Cl  0  0  0  0  0  0  0  0  0  0  0  0
    3.8880    0.0200    1.2120 C   0  0  0  0  0  0  0  0  0  0  0  0
    4.5880    0.0240    0.0000 C   0  0  0  0  0  0  0  0  0  0  0  0
    6.0030    0.0320    0.0000 N   0  0  0  0  0  0  0  0  0  0  0  0
    6.4850    1.4210    0.0000 C   0  0  0  0  0  0  0  0  0  0  0  0
    7.9950    1.4300    0.0000 C   0  0  0  0  0  0  0  0  0  0  0  0
    8.6110    0.3770    0.0000 O   0  0  0  0  0  0  0  0  0  0  0  0
    8.6430    2.5690    0.0000 O   0  0  0  0  0  0  0  0  0  0  0  0
    3.8880    0.0200   -1.2130 C   0  0  0  0  0  0  0  0  0  0  0  0
    2.4880    0.0110   -1.2130 C   0  0  0  0  0  0  0  0  0  0  0  0
    1.6380    0.0060   -2.6850 Cl  0  0  0  0  0  0  0  0  0  0  0  0
  1  2  1  0  0  0  0
  2  3  2  0  0  0  0
  3  4  1  0  0  0  0
  3  5  1  0  0  0  0
  5  6  2  0  0  0  0
  6  7  1  0  0  0  0
  7  8  1  0  0  0  0
  8  9  1  0  0  0  0
  9 10  2  0  0  0  0
  9 11  1  0  0  0  0
  6 12  1  0  0  0  0
 12 13  2  0  0  0  0
 13  2  1  0  0  0  0
 13 14  1  0  0  0  0
M  END
>  <BIO>
1.10

$$$$
Unnamed
  -MTS-   06200418093D 0   0.00000     0.00000     0

 15 15  0  0  0  0  0  0  0  0  1 V2000
    0.0180   -0.0030    0.0000 S   0  0  0  0  0  0  0  0  0  0  0  0
    1.7880    0.0070    0.0000 C   0  0  0  0  0  0  0  0  0  0  0  0
    2.4880    0.0110    1.2120 C   0  0  0  0  0  0  0  0  0  0  0  0
    1.6380    0.0060    2.6850 Cl  0  0  0  0  0  0  0  0  0  0  0  0
    3.8880    0.0200    1.2120 C   0  0  0  0  0  0  0  0  0  0  0  0
    4.5880    0.0240    0.0000 C   0  0  0  0  0  0  0  0  0  0  0  0
    6.0030    0.0330    0.0000 N   0  0  0  0  0  0  0  0  0  0  0  0
    6.4850    1.4220    0.0000 C   0  0  0  0  0  0  0  0  0  0  0  0
    5.9720    2.1380   -1.2460 C   0  0  0  0  0  0  0  0  0  0  0  0
    7.9950    1.4310    0.0000 C   0  0  0  0  0  0  0  0  0  0  0  0
    8.6110    0.3780    0.0000 O   0  0  0  0  0  0  0  0  0  0  0  0
    8.6430    2.5690    0.0000 O   0  0  0  0  0  0  0  0  0  0  0  0
    3.8880    0.0200   -1.2120 C   0  0  0  0  0  0  0  0  0  0  0  0
    2.4880    0.0120   -1.2120 C   0  0  0  0  0  0  0  0  0  0  0  0
    1.6380    0.0060   -2.6850 Cl  0  0  0  0  0  0  0  0  0  0  0  0
  1  2  1  0  0  0  0
  2  3  2  0  0  0  0
  3  4  1  0  0  0  0
  3  5  1  0  0  0  0
  5  6  2  0  0  0  0
  6  7  1  0  0  0  0
  7  8  1  0  0  0  0
  8  9  1  0  0  0  0
  8 10  1  0  0  0  0
 10 11  2  0  0  0  0
 10 12  1  0  0  0  0
  6 13  1  0  0  0  0
 13 14  2  0  0  0  0
 14  2  1  0  0  0  0
 14 15  1  0  0  0  0
M  END
>  <BIO>
48.00

$$$$
Unnamed
  -MTS-   06200418093D 0   0.00000     0.00000     0

 21 22  0  0  0  0  0  0  0  0  1 V2000
    0.0180   -0.0030    0.0000 S   0  0  0  0  0  0  0  0  0  0  0  0
    1.7880    0.0070    0.0000 C   0  0  0  0  0  0  0  0  0  0  0  0
    2.4880    0.0120    1.2120 C   0  0  0  0  0  0  0  0  0  0  0  0
    1.6380    0.0060    2.6850 Cl  0  0  0  0  0  0  0  0  0  0  0  0
    3.8880    0.0200    1.2120 C   0  0  0  0  0  0  0  0  0  0  0  0
    4.5880    0.0240    0.0000 C   0  0  0  0  0  0  0  0  0  0  0  0
    6.0030    0.0330    0.0000 N   0  0  0  0  0  0  0  0  0  0  0  0
    6.4850    1.4220    0.0000 C   0  0  0  0  0  0  0  0  0  0  0  0
    8.0130    1.4310    0.0000 C   0  0  0  0  0  0  0  0  0  0  0  0
    8.5070    2.8570    0.0000 C   0  0  0  0  0  0  0  0  0  0  0  0
    8.7370    3.5190    1.2120 C   0  0  0  0  0  0  0  0  0  0  0  0
    9.1950    4.8420    1.2120 C   0  0  0  0  0  0  0  0  0  0  0  0
    9.4250    5.5030    0.0000 C   0  0  0  0  0  0  0  0  0  0  0  0
    9.1950    4.8420   -1.2130 C   0  0  0  0  0  0  0  0  0  0  0  0
    8.7370    3.5190   -1.2130 C   0  0  0  0  0  0  0  0  0  0  0  0
    5.9770    2.1300   -1.2330 C   0  0  0  0  0  0  0  0  0  0  0  0
    5.2790    1.5330   -2.0360 O   0  0  0  0  0  0  0  0  0  0  0  0
    6.2860    3.3870   -1.4400 O   0  0  0  0  0  0  0  0  0  0  0  0
    3.8880    0.0200   -1.2120 C   0  0  0  0  0  0  0  0  0  0  0  0
    2.4880    0.0120   -1.2120 C   0  0  0  0  0  0  0  0  0  0  0  0
    1.6380    0.0060   -2.6850 Cl  0  0  0  0  0  0  0  0  0  0  0  0
  1  2  1  0  0  0  0
  2  3  2  0  0  0  0
  3  4  1  0  0  0  0
  3  5  1  0  0  0  0
  5  6  2  0  0  0  0
  6  7  1  0  0  0  0
  7  8  1  0  0  0  0
  8  9  1  0  0  0  0
  9 10  1  0  0  0  0
 10 11  2  0  0  0  0
 11 12  1  0  0  0  0
 12 13  2  0  0  0  0
 13 14  1  0  0  0  0
 14 15  2  0  0  0  0
 15 10  1  0  0  0  0
  8 16  1  0  0  0  0
 16 17  2  0  0  0  0
 16 18  1  0  0  0  0
  6 19  1  0  0  0  0
 19 20  2  0  0  0  0
 20  2  1  0  0  0  0
 20 21  1  0  0  0  0
M  END
>  <BIO>
58.00

$$$$
Unnamed
  -MTS-   06200418093D 0   0.00000     0.00000     0

 15 15  0  0  0  0  0  0  0  0  1 V2000
    0.0180   -0.0030    0.0000 S   0  0  0  0  0  0  0  0  0  0  0  0
    1.7880    0.0070    0.0000 C   0  0  0  0  0  0  0  0  0  0  0  0
    2.4880    0.0110    1.2120 C   0  0  0  0  0  0  0  0  0  0  0  0
    1.7330    0.0070    2.5200 C   0  0  0  0  0  0  0  0  0  0  0  0
    3.8880    0.0200    1.2120 C   0  0  0  0  0  0  0  0  0  0  0  0
    4.5880    0.0240    0.0000 C   0  0  0  0  0  0  0  0  0  0  0  0
    6.0030    0.0320    0.0000 N   0  0  0  0  0  0  0  0  0  0  0  0
    6.4850    1.4210    0.0000 C   0  0  0  0  0  0  0  0  0  0  0  0
    5.9720    2.1370   -1.2460 C   0  0  0  0  0  0  0  0  0  0  0  0
    7.9950    1.4300    0.0000 C   0  0  0  0  0  0  0  0  0  0  0  0
    8.6110    0.3770    0.0000 O   0  0  0  0  0  0  0  0  0  0  0  0
    8.6430    2.5690    0.0000 O   0  0  0  0  0  0  0  0  0  0  0  0
    3.8880    0.0200   -1.2120 C   0  0  0  0  0  0  0  0  0  0  0  0
    2.4880    0.0110   -1.2120 C   0  0  0  0  0  0  0  0  0  0  0  0
    1.7330    0.0070   -2.5200 C   0  0  0  0  0  0  0  0  0  0  0  0
  1  2  1  0  0  0  0
  2  3  2  0  0  0  0
  3  4  1  0  0  0  0
  3  5  1  0  0  0  0
  5  6  2  0  0  0  0
  6  7  1  0  0  0  0
  7  8  1  0  0  0  0
  8  9  1  0  0  0  0
  8 10  1  0  0  0  0
 10 11  2  0  0  0  0
 10 12  1  0  0  0  0
  6 13  1  0  0  0  0
 13 14  2  0  0  0  0
 14  2  1  0  0  0  0
 14 15  1  0  0  0  0
M  END
>  <BIO>
550.00

$$$$
Unnamed
  -MTS-   06200418093D 0   0.00000     0.00000     0

 21 22  0  0  0  0  0  0  0  0  1 V2000
    0.0180   -0.0030    0.0000 S   0  0  0  0  0  0  0  0  0  0  0  0
    1.7880    0.0070    0.0000 C   0  0  0  0  0  0  0  0  0  0  0  0
    2.4880    0.0120    1.2120 C   0  0  0  0  0  0  0  0  0  0  0  0
    1.7330    0.0070    2.5200 C   0  0  0  0  0  0  0  0  0  0  0  0
    3.8880    0.0200    1.2120 C   0  0  0  0  0  0  0  0  0  0  0  0
    4.5880    0.0240    0.0000 C   0  0  0  0  0  0  0  0  0  0  0  0
    6.0030    0.0320    0.0000 N   0  0  0  0  0  0  0  0  0  0  0  0
    6.4850    1.4210    0.0000 C   0  0  0  0  0  0  0  0  0  0  0  0
    8.0130    1.4300    0.0000 C   0  0  0  0  0  0  0  0  0  0  0  0
    8.5080    2.8570    0.0000 C   0  0  0  0  0  0  0  0  0  0  0  0
    8.7370    3.5180    1.2120 C   0  0  0  0  0  0  0  0  0  0  0  0
    9.1960    4.8410    1.2120 C   0  0  0  0  0  0  0  0  0  0  0  0
    9.4250    5.5020   -0.0010 C   0  0  0  0  0  0  0  0  0  0  0  0
    9.1960    4.8410   -1.2130 C   0  0  0  0  0  0  0  0  0  0  0  0
    8.7370    3.5180   -1.2130 C   0  0  0  0  0  0  0  0  0  0  0  0
    5.9770    2.1300   -1.2330 C   0  0  0  0  0  0  0  0  0  0  0  0
    5.2790    1.5330   -2.0360 O   0  0  0  0  0  0  0  0  0  0  0  0
    6.2860    3.3860   -1.4400 O   0  0  0  0  0  0  0  0  0  0  0  0
    3.8880    0.0200   -1.2130 C   0  0  0  0  0  0  0  0  0  0  0  0
    2.4880    0.0110   -1.2130 C   0  0  0  0  0  0  0  0  0  0  0  0
    1.7330    0.0070   -2.5200 C   0  0  0  0  0  0  0  0  0  0  0  0
  1  2  1  0  0  0  0
  2  3  2  0  0  0  0
  3  4  1  0  0  0  0
  3  5  1  0  0  0  0
  5  6  2  0  0  0  0
  6  7  1  0  0  0  0
  7  8  1  0  0  0  0
  8  9  1  0  0  0  0
  9 10  1  0  0  0  0
 10 11  2  0  0  0  0
 11 12  1  0  0  0  0
 12 13  2  0  0  0  0
 13 14  1  0  0  0  0
 14 15  2  0  0  0  0
 15 10  1  0  0  0  0
  8 16  1  0  0  0  0
 16 17  2  0  0  0  0
 16 18  1  0  0  0  0
  6 19  1  0  0  0  0
 19 20  2  0  0  0  0
 20  2  1  0  0  0  0
 20 21  1  0  0  0  0
M  END
>  <BIO>
400.00

$$$$
Unnamed
  -MTS-   06200418093D 0   0.00000     0.00000     0

 14 14  0  0  0  0  0  0  0  0  1 V2000
    0.0180   -0.0030    0.0000 S   0  0  0  0  0  0  0  0  0  0  0  0
    1.7880    0.0070    0.0000 C   0  0  0  0  0  0  0  0  0  0  0  0
    2.4880    0.0120    1.2120 C   0  0  0  0  0  0  0  0  0  0  0  0
    1.5630    0.0060    2.8150 Br  0  0  0  0  0  0  0  0  0  0  0  0
    3.8880    0.0200    1.2120 C   0  0  0  0  0  0  0  0  0  0  0  0
    4.5880    0.0240    0.0000 C   0  0  0  0  0  0  0  0  0  0  0  0
    6.0980    0.0330    0.0000 C   0  0  0  0  0  0  0  0  0  0  0  0
    6.5990    1.4770    0.0000 C   0  0  0  0  0  0  0  0  0  0  0  0
    8.1090    1.4860    0.0000 C   0  0  0  0  0  0  0  0  0  0  0  0
    8.7250    0.4330    0.0000 O   0  0  0  0  0  0  0  0  0  0  0  0
    8.7570    2.6250    0.0000 O   0  0  0  0  0  0  0  0  0  0  0  0
    3.8880    0.0200   -1.2120 C   0  0  0  0  0  0  0  0  0  0  0  0
    2.4880    0.0120   -1.2120 C   0  0  0  0  0  0  0  0  0  0  0  0
    1.5630    0.0060   -2.8150 Br  0  0  0  0  0  0  0  0  0  0  0  0
  1  2  1  0  0  0  0
  2  3  2  0  0  0  0
  3  4  1  0  0  0  0
  3  5  1  0  0  0  0
  5  6  2  0  0  0  0
  6  7  1  0  0  0  0
  7  8  1  0  0  0  0
  8  9  1  0  0  0  0
  9 10  2  0  0  0  0
  9 11  1  0  0  0  0
  6 12  1  0  0  0  0
 12 13  2  0  0  0  0
 13  2  1  0  0  0  0
 13 14  1  0  0  0  0
M  END
>  <BIO>
0.11

$$$$
Unnamed
  -MTS-   06200418093D 0   0.00000     0.00000     0

 14 14  0  0  0  0  0  0  0  0  1 V2000
    0.0180   -0.0030    0.0000 S   0  0  0  0  0  0  0  0  0  0  0  0
    1.7880    0.0070    0.0000 C   0  0  0  0  0  0  0  0  0  0  0  0
    2.4880    0.0110    1.2120 C   0  0  0  0  0  0  0  0  0  0  0  0
    1.7330    0.0070    2.5200 C   0  0  0  0  0  0  0  0  0  0  0  0
    3.8880    0.0200    1.2120 C   0  0  0  0  0  0  0  0  0  0  0  0
    4.5880    0.0240    0.0000 C   0  0  0  0  0  0  0  0  0  0  0  0
    6.0980    0.0330    0.0000 C   0  0  0  0  0  0  0  0  0  0  0  0
    6.5990    1.4760    0.0000 C   0  0  0  0  0  0  0  0  0  0  0  0
    8.1090    1.4850    0.0000 C   0  0  0  0  0  0  0  0  0  0  0  0
    8.7250    0.4320    0.0000 O   0  0  0  0  0  0  0  0  0  0  0  0
    8.7570    2.6240    0.0000 O   0  0  0  0  0  0  0  0  0  0  0  0
    3.8880    0.0200   -1.2120 C   0  0  0  0  0  0  0  0  0  0  0  0
    2.4880    0.0110   -1.2120 C   0  0  0  0  0  0  0  0  0  0  0  0
    1.7330    0.0070   -2.5200 C   0  0  0  0  0  0  0  0  0  0  0  0
  1  2  1  0  0  0  0
  2  3  2  0  0  0  0
  3  4  1  0  0  0  0
  3  5  1  0  0  0  0
  5  6  2  0  0  0  0
  6  7  1  0  0  0  0
  7  8  1  0  0  0  0
  8  9  1  0  0  0  0
  9 10  2  0  0  0  0
  9 11  1  0  0  0  0
  6 12  1  0  0  0  0
 12 13  2  0  0  0  0
 13  2  1  0  0  0  0
 13 14  1  0  0  0  0
M  END
>  <BIO>
5000.00

$$$$
Unnamed
  -MTS-   06200418093D 0   0.00000     0.00000     0

 14 14  0  0  0  0  0  0  0  0  1 V2000
    0.0180   -0.0030    0.0000 S   0  0  0  0  0  0  0  0  0  0  0  0
    1.7880    0.0070    0.0000 C   0  0  0  0  0  0  0  0  0  0  0  0
    2.4880    0.0110    1.2120 C   0  0  0  0  0  0  0  0  0  0  0  0
    1.5630    0.0060    2.8150 Br  0  0  0  0  0  0  0  0  0  0  0  0
    3.8880    0.0200    1.2120 C   0  0  0  0  0  0  0  0  0  0  0  0
    4.5880    0.0240    0.0000 C   0  0  0  0  0  0  0  0  0  0  0  0
    6.3580    0.0350    0.0000 S   0  0  0  0  0  0  0  0  0  0  0  0
    6.9540    1.7540    0.0000 C   0  0  0  0  0  0  0  0  0  0  0  0
    8.4640    1.7630    0.0000 C   0  0  0  0  0  0  0  0  0  0  0  0
    9.0810    0.7100    0.0000 O   0  0  0  0  0  0  0  0  0  0  0  0
    9.1130    2.9020    0.0000 O   0  0  0  0  0  0  0  0  0  0  0  0
    3.8880    0.0200   -1.2120 C   0  0  0  0  0  0  0  0  0  0  0  0
    2.4880    0.0120   -1.2120 C   0  0  0  0  0  0  0  0  0  0  0  0
    1.5630    0.0060   -2.8150 Br  0  0  0  0  0  0  0  0  0  0  0  0
  1  2  1  0  0  0  0
  2  3  2  0  0  0  0
  3  4  1  0  0  0  0
  3  5  1  0  0  0  0
  5  6  2  0  0  0  0
  6  7  1  0  0  0  0
  7  8  1  0  0  0  0
  8  9  1  0  0  0  0
  9 10  2  0  0  0  0
  9 11  1  0  0  0  0
  6 12  1  0  0  0  0
 12 13  2  0  0  0  0
 13  2  1  0  0  0  0
 13 14  1  0  0  0  0
M  END
>  <BIO>
1.50

$$$$
Unnamed
  -MTS-   06200418093D 0   0.00000     0.00000     0

 14 14  0  0  0  0  0  0  0  0  1 V2000
    0.0180   -0.0030    0.0000 S   0  0  0  0  0  0  0  0  0  0  0  0
    1.7880    0.0070    0.0000 C   0  0  0  0  0  0  0  0  0  0  0  0
    2.4880    0.0120    1.2120 C   0  0  0  0  0  0  0  0  0  0  0  0
    1.7330    0.0070    2.5200 C   0  0  0  0  0  0  0  0  0  0  0  0
    3.8880    0.0200    1.2120 C   0  0  0  0  0  0  0  0  0  0  0  0
    4.5880    0.0240    0.0000 C   0  0  0  0  0  0  0  0  0  0  0  0
    6.3580    0.0350    0.0000 S   0  0  0  0  0  0  0  0  0  0  0  0
    6.9540    1.7550    0.0000 C   0  0  0  0  0  0  0  0  0  0  0  0
    8.4640    1.7640    0.0000 C   0  0  0  0  0  0  0  0  0  0  0  0
    9.0810    0.7110    0.0000 O   0  0  0  0  0  0  0  0  0  0  0  0
    9.1120    2.9020    0.0000 O   0  0  0  0  0  0  0  0  0  0  0  0
    3.8880    0.0200   -1.2120 C   0  0  0  0  0  0  0  0  0  0  0  0
    2.4880    0.0120   -1.2120 C   0  0  0  0  0  0  0  0  0  0  0  0
    1.7330    0.0070   -2.5200 C   0  0  0  0  0  0  0  0  0  0  0  0
  1  2  1  0  0  0  0
  2  3  2  0  0  0  0
  3  4  1  0  0  0  0
  3  5  1  0  0  0  0
  5  6  2  0  0  0  0
  6  7  1  0  0  0  0
  7  8  1  0  0  0  0
  8  9  1  0  0  0  0
  9 10  2  0  0  0  0
  9 11  1  0  0  0  0
  6 12  1  0  0  0  0
 12 13  2  0  0  0  0
 13  2  1  0  0  0  0
 13 14  1  0  0  0  0
M  END
>  <BIO>
3.50

$$$$
Unnamed
  -MTS-   06200418093D 0   0.00000     0.00000     0

 14 14  0  0  0  0  0  0  0  0  1 V2000
    0.0180   -0.0030    0.0000 S   0  0  0  0  0  0  0  0  0  0  0  0
    1.7880    0.0070    0.0000 C   0  0  0  0  0  0  0  0  0  0  0  0
    2.4880    0.0120    1.2120 C   0  0  0  0  0  0  0  0  0  0  0  0
    1.5630    0.0060    2.8150 Br  0  0  0  0  0  0  0  0  0  0  0  0
    3.8880    0.0200    1.2120 C   0  0  0  0  0  0  0  0  0  0  0  0
    4.5880    0.0240    0.0000 C   0  0  0  0  0  0  0  0  0  0  0  0
    5.9580    0.0320    0.0000 O   0  0  0  0  0  0  0  0  0  0  0  0
    6.6220    1.2990    0.0000 C   0  0  0  0  0  0  0  0  0  0  0  0
    8.1160    1.0840    0.0000 C   0  0  0  0  0  0  0  0  0  0  0  0
    8.5700   -0.0480    0.0000 O   0  0  0  0  0  0  0  0  0  0  0  0
    8.9260    2.1140    0.0000 O   0  0  0  0  0  0  0  0  0  0  0  0
    3.8880    0.0200   -1.2130 C   0  0  0  0  0  0  0  0  0  0  0  0
    2.4880    0.0120   -1.2120 C   0  0  0  0  0  0  0  0  0  0  0  0
    1.5630    0.0060   -2.8150 Br  0  0  0  0  0  0  0  0  0  0  0  0
  1  2  1  0  0  0  0
  2  3  2  0  0  0  0
  3  4  1  0  0  0  0
  3  5  1  0  0  0  0
  5  6  2  0  0  0  0
  6  7  1  0  0  0  0
  7  8  1  0  0  0  0
  8  9  1  0  0  0  0
  9 10  2  0  0  0  0
  9 11  1  0  0  0  0
  6 12  1  0  0  0  0
 12 13  2  0  0  0  0
 13  2  1  0  0  0  0
 13 14  1  0  0  0  0
M  END
>  <BIO>
0.10

$$$$
