Unnamed
  -MTS-   06200418093D 0   0.00000     0.00000     0

 13 13  0  0  0  0  0  0  0  0  1 V2000
    0.0180   -0.0030    0.0000 S   0  0  0  0  0  0  0  0  0  0  0  0
    1.7880    0.0070    0.0000 C   0  0  0  0  0  0  0  0  0  0  0  0
    2.4880    0.0110    1.2120 C   0  0  0  0  0  0  0  0  0  0  0  0
    3.8880    0.0200    1.2120 C   0  0  0  0  0  0  0  0  0  0  0  0
    4.5880    0.0240    0.0000 C   0  0  0  0  0  0  0  0  0  0  0  0
    6.0030    0.0330    0.0000 N   0  0  0  0  0  0  0  0  0  0  0  0
    6.6610    1.1880    0.0000 C   0  0  0  0  0  0  0  0  0  0  0  0
    6.0400    2.2500    0.0000 O   0  0  0  0  0  0  0  0  0  0  0  0
    8.1410    1.1970    0.0000 C   0  0  0  0  0  0  0  0  0  0  0  0
    8.7570    0.1440    0.0000 O   0  0  0  0  0  0  0  0  0  0  0  0
    8.7890    2.3360    0.0000 O   0  0  0  0  0  0  0  0  0  0  0  0
    3.8880    0.0200   -1.2130 C   0  0  0  0  0  0  0  0  0  0  0  0
    2.4880    0.0120   -1.2120 C   0  0  0  0  0  0  0  0  0  0  0  0
  1  2  1  0  0  0  0
  2  3  2  0  0  0  0
  3  4  1  0  0  0  0
  4  5  2  0  0  0  0
  5  6  1  0  0  0  0
  6  7  1  0  0  0  0
  7  8  2  0  0  0  0
  7  9  1  0  0  0  0
  9 10  2  0  0  0  0
  9 11  1  0  0  0  0
  5 12  1  0  0  0  0
 12 13  2  0  0  0  0
 13  2  1  0  0  0  0
M  END
>  <BIO>
48.00

$$$$
Unnamed
  -MTS-   06200418093D 0   0.00000     0.00000     0

 15 15  0  0  0  0  0  0  0  0  1 V2000
    0.0180   -0.0030    0.0000 S   0  0  0  0  0  0  0  0  0  0  0  0
    1.7880    0.0070    0.0000 C   0  0  0  0  0  0  0  0  0  0  0  0
    2.4880    0.0120    1.2130 C   0  0  0  0  0  0  0  0  0  0  0  0
    1.4630    0.0050    2.9880 I   0  0  0  0  0  0  0  0  0  0  0  0
    3.8880    0.0200    1.2130 C   0  0  0  0  0  0  0  0  0  0  0  0
    4.5880    0.0240    0.0000 C   0  0  0  0  0  0  0  0  0  0  0  0
    6.0030    0.0330    0.0000 N   0  0  0  0  0  0  0  0  0  0  0  0
    6.6610    1.1880    0.0000 C   0  0  0  0  0  0  0  0  0  0  0  0
    6.0400    2.2500    0.0000 O   0  0  0  0  0  0  0  0  0  0  0  0
    8.1410    1.1970    0.0010 C   0  0  0  0  0  0  0  0  0  0  0  0
    8.7570    0.1440    0.0000 O   0  0  0  0  0  0  0  0  0  0  0  0
    8.7890    2.3360    0.0010 O   0  0  0  0  0  0  0  0  0  0  0  0
    3.8880    0.0200   -1.2120 C   0  0  0  0  0  0  0  0  0  0  0  0
    2.4880    0.0110   -1.2120 C   0  0  0  0  0  0  0  0  0  0  0  0
    1.4630    0.0050   -2.9880 I   0  0  0  0  0  0  0  0  0  0  0  0
  1  2  1  0  0  0  0
  2  3  2  0  0  0  0
  3  4  1  0  0  0  0
  3  5  1  0  0  0  0
  5  6  2  0  0  0  0
  6  7  1  0  0  0  0
  7  8  1  0  0  0  0
  8  9  2  0  0  0  0
  8 10  1  0  0  0  0
 10 11  2  0  0  0  0
 10 12  1  0  0  0  0
  6 13  1  0  0  0  0
 13 14  2  0  0  0  0
 14  2  1  0  0  0  0
 14 15  1  0  0  0  0
M  END
>  <BIO>
0.10

$$$$
Unnamed
  -MTS-   06200418093D 0   0.00000     0.00000     0

 15 15  0  0  0  0  0  0  0  0  1 V2000
    0.0180   -0.0030    0.0000 S   0  0  0  0  0  0  0  0  0  0  0  0
    1.7880    0.0070    0.0000 C   0  0  0  0  0  0  0  0  0  0  0  0
    2.4880    0.0120    1.2120 C   0  0  0  0  0  0  0  0  0  0  0  0
    1.5630    0.0060    2.8150 Br  0  0  0  0  0  0  0  0  0  0  0  0
    3.8880    0.0200    1.2120 C   0  0  0  0  0  0  0  0  0  0  0  0
    4.5880    0.0240    0.0000 C   0  0  0  0  0  0  0  0  0  0  0  0
    6.0030    0.0330    0.0000 N   0  0  0  0  0  0  0  0  0  0  0  0
    6.6610    1.1880    0.0000 C   0  0  0  0  0  0  0  0  0  0  0  0
    6.0400    2.2500    0.0000 O   0  0  0  0  0  0  0  0  0  0  0  0
    8.1410    1.1970    0.0000 C   0  0  0  0  0  0  0  0  0  0  0  0
    8.7570    0.1440    0.0000 O   0  0  0  0  0  0  0  0  0  0  0  0
    8.7890    2.3360    0.0000 O   0  0  0  0  0  0  0  0  0  0  0  0
    3.8880    0.0200   -1.2120 C   0  0  0  0  0  0  0  0  0  0  0  0
    2.4880    0.0120   -1.2120 C   0  0  0  0  0  0  0  0  0  0  0  0
    1.5630    0.0060   -2.8150 Br  0  0  0  0  0  0  0  0  0  0  0  0
  1  2  1  0  0  0  0
  2  3  2  0  0  0  0
  3  4  1  0  0  0  0
  3  5  1  0  0  0  0
  5  6  2  0  0  0  0
  6  7  1  0  0  0  0
  7  8  1  0  0  0  0
  8  9  2  0  0  0  0
  8 10  1  0  0  0  0
 10 11  2  0  0  0  0
 10 12  1  0  0  0  0
  6 13  1  0  0  0  0
 13 14  2  0  0  0  0
 14  2  1  0  0  0  0
 14 15  1  0  0  0  0
M  END
>  <BIO>
6.00

$$$$
Unnamed
  -MTS-   06200418093D 0   0.00000     0.00000     0

 15 15  0  0  0  0  0  0  0  0  1 V2000
    0.0180   -0.0030    0.0000 S   0  0  0  0  0  0  0  0  0  0  0  0
    1.7880    0.0070    0.0000 C   0  0  0  0  0  0  0  0  0  0  0  0
    2.4880    0.0110    1.2120 C   0  0  0  0  0  0  0  0  0  0  0  0
    1.5630    0.0060    2.8150 Br  0  0  0  0  0  0  0  0  0  0  0  0
    3.8880    0.0200    1.2130 C   0  0  0  0  0  0  0  0  0  0  0  0
    4.5880    0.0240    0.0000 C   0  0  0  0  0  0  0  0  0  0  0  0
    6.0030    0.0330    0.0000 N   0  0  0  0  0  0  0  0  0  0  0  0
    6.6610    1.1880    0.0000 C   0  0  0  0  0  0  0  0  0  0  0  0
    6.0400    2.2500    0.0000 O   0  0  0  0  0  0  0  0  0  0  0  0
    8.1410    1.1970    0.0000 C   0  0  0  0  0  0  0  0  0  0  0  0
    8.7630    0.1360    0.0000 O   0  0  0  0  0  0  0  0  0  0  0  0
    8.7990    2.3530    0.0000 N   0  0  0  0  0  0  0  0  0  0  0  0
    3.8880    0.0200   -1.2120 C   0  0  0  0  0  0  0  0  0  0  0  0
    2.4880    0.0120   -1.2120 C   0  0  0  0  0  0  0  0  0  0  0  0
    1.5630    0.0060   -2.8150 Br  0  0  0  0  0  0  0  0  0  0  0  0
  1  2  1  0  0  0  0
  2  3  2  0  0  0  0
  3  4  1  0  0  0  0
  3  5  1  0  0  0  0
  5  6  2  0  0  0  0
  6  7  1  0  0  0  0
  7  8  1  0  0  0  0
  8  9  2  0  0  0  0
  8 10  1  0  0  0  0
 10 11  2  0  0  0  0
 10 12  1  0  0  0  0
  6 13  1  0  0  0  0
 13 14  2  0  0  0  0
 14  2  1  0  0  0  0
 14 15  1  0  0  0  0
M  END
>  <BIO>
3.00

$$$$
Unnamed
  -MTS-   06200418093D 0   0.00000     0.00000     0

 16 16  0  0  0  0  0  0  0  0  1 V2000
    0.0180   -0.0030    0.0000 S   0  0  0  0  0  0  0  0  0  0  0  0
    1.7880    0.0070    0.0000 C   0  0  0  0  0  0  0  0  0  0  0  0
    2.4880    0.0110    1.2120 C   0  0  0  0  0  0  0  0  0  0  0  0
    1.5630    0.0060    2.8150 Br  0  0  0  0  0  0  0  0  0  0  0  0
    3.8880    0.0200    1.2120 C   0  0  0  0  0  0  0  0  0  0  0  0
    4.5880    0.0240    0.0000 C   0  0  0  0  0  0  0  0  0  0  0  0
    6.0030    0.0330    0.0000 N   0  0  0  0  0  0  0  0  0  0  0  0
    6.6610    1.1880    0.0000 C   0  0  0  0  0  0  0  0  0  0  0  0
    6.0400    2.2500    0.0000 O   0  0  0  0  0  0  0  0  0  0  0  0
    8.1410    1.1970    0.0000 C   0  0  0  0  0  0  0  0  0  0  0  0
    8.7620    0.1360    0.0000 O   0  0  0  0  0  0  0  0  0  0  0  0
    8.7990    2.3530    0.0000 N   0  0  0  0  0  0  0  0  0  0  0  0
   10.2690    2.3620    0.0000 C   0  0  0  0  0  0  0  0  0  0  0  0
    3.8880    0.0200   -1.2120 C   0  0  0  0  0  0  0  0  0  0  0  0
    2.4880    0.0120   -1.2120 C   0  0  0  0  0  0  0  0  0  0  0  0
    1.5630    0.0060   -2.8150 Br  0  0  0  0  0  0  0  0  0  0  0  0
  1  2  1  0  0  0  0
  2  3  2  0  0  0  0
  3  4  1  0  0  0  0
  3  5  1  0  0  0  0
  5  6  2  0  0  0  0
  6  7  1  0  0  0  0
  7  8  1  0  0  0  0
  8  9  2  0  0  0  0
  8 10  1  0  0  0  0
 10 11  2  0  0  0  0
 10 12  1  0  0  0  0
 12 13  1  0  0  0  0
  6 14  1  0  0  0  0
 14 15  2  0  0  0  0
 15  2  1  0  0  0  0
 15 16  1  0  0  0  0
M  END
>  <BIO>
47.00

$$$$
Unnamed
  -MTS-   06200418093D 0   0.00000     0.00000     0

 15 15  0  0  0  0  0  0  0  0  1 V2000
    0.0180   -0.0030    0.0000 S   0  0  0  0  0  0  0  0  0  0  0  0
    1.7880    0.0070    0.0000 C   0  0  0  0  0  0  0  0  0  0  0  0
    2.4880    0.0120    1.2120 C   0  0  0  0  0  0  0  0  0  0  0  0
    1.6380    0.0060    2.6850 Cl  0  0  0  0  0  0  0  0  0  0  0  0
    3.8880    0.0200    1.2120 C   0  0  0  0  0  0  0  0  0  0  0  0
    4.5880    0.0240    0.0000 C   0  0  0  0  0  0  0  0  0  0  0  0
    6.0030    0.0330    0.0000 N   0  0  0  0  0  0  0  0  0  0  0  0
    6.6610    1.1880    0.0000 C   0  0  0  0  0  0  0  0  0  0  0  0
    6.0400    2.2500    0.0000 O   0  0  0  0  0  0  0  0  0  0  0  0
    8.1410    1.1970    0.0000 C   0  0  0  0  0  0  0  0  0  0  0  0
    8.7570    0.1440    0.0000 O   0  0  0  0  0  0  0  0  0  0  0  0
    8.7890    2.3360    0.0000 O   0  0  0  0  0  0  0  0  0  0  0  0
    3.8880    0.0200   -1.2130 C   0  0  0  0  0  0  0  0  0  0  0  0
    2.4880    0.0120   -1.2120 C   0  0  0  0  0  0  0  0  0  0  0  0
    1.6380    0.0060   -2.6850 Cl  0  0  0  0  0  0  0  0  0  0  0  0
  1  2  1  0  0  0  0
  2  3  2  0  0  0  0
  3  4  1  0  0  0  0
  3  5  1  0  0  0  0
  5  6  2  0  0  0  0
  6  7  1  0  0  0  0
  7  8  1  0  0  0  0
  8  9  2  0  0  0  0
  8 10  1  0  0  0  0
 10 11  2  0  0  0  0
 10 12  1  0  0  0  0
  6 13  1  0  0  0  0
 13 14  2  0  0  0  0
 14  2  1  0  0  0  0
 14 15  1  0  0  0  0
M  END
>  <BIO>
1.10

$$$$
Unnamed
  -MTS-   06200418093D 0   0.00000     0.00000     0

 15 15  0  0  0  0  0  0  0  0  1 V2000
    0.0180   -0.0030    0.0000 S   0  0  0  0  0  0  0  0  0  0  0  0
    1.7880    0.0070    0.0000 C   0  0  0  0  0  0  0  0  0  0  0  0
    2.4880    0.0110   -1.2120 C   0  0  0  0  0  0  0  0  0  0  0  0
    1.8230    0.0070   -2.3640 F   0  0  0  0  0  0  0  0  0  0  0  0
    3.8880    0.0200   -1.2120 C   0  0  0  0  0  0  0  0  0  0  0  0
    4.5880    0.0240    0.0000 C   0  0  0  0  0  0  0  0  0  0  0  0
    6.0030    0.0330    0.0000 N   0  0  0  0  0  0  0  0  0  0  0  0
    6.6610    1.1880    0.0000 C   0  0  0  0  0  0  0  0  0  0  0  0
    6.0400    2.2500    0.0000 O   0  0  0  0  0  0  0  0  0  0  0  0
    8.1410    1.1970    0.0000 C   0  0  0  0  0  0  0  0  0  0  0  0
    8.7570    0.1440    0.0000 O   0  0  0  0  0  0  0  0  0  0  0  0
    8.7890    2.3360    0.0000 O   0  0  0  0  0  0  0  0  0  0  0  0
    3.8880    0.0200    1.2120 C   0  0  0  0  0  0  0  0  0  0  0  0
    2.4880    0.0120    1.2120 C   0  0  0  0  0  0  0  0  0  0  0  0
    1.8230    0.0080    2.3640 F   0  0  0  0  0  0  0  0  0  0  0  0
  1  2  1  0  0  0  0
  2  3  2  0  0  0  0
  3  4  1  0  0  0  0
  3  5  1  0  0  0  0
  5  6  2  0  0  0  0
  6  7  1  0  0  0  0
  7  8  1  0  0  0  0
  8  9  2  0  0  0  0
  8 10  1  0  0  0  0
 10 11  2  0  0  0  0
 10 12  1  0  0  0  0
  6 13  1  0  0  0  0
 13 14  2  0  0  0  0
 14  2  1  0  0  0  0
 14 15  1  0  0  0  0
M  END
>  <BIO>
3.60

$$$$
Unnamed
  -MTS-   06200418093D 0   0.00000     0.00000     0

 15 15  0  0  0  0  0  0  0  0  1 V2000
    0.0180   -0.0030    0.0000 S   0  0  0  0  0  0  0  0  0  0  0  0
    1.7880    0.0070    0.0000 C   0  0  0  0  0  0  0  0  0  0  0  0
    2.4880    0.0120    1.2130 C   0  0  0  0  0  0  0  0  0  0  0  0
    1.7330    0.0070    2.5200 C   0  0  0  0  0  0  0  0  0  0  0  0
    3.8880    0.0200    1.2120 C   0  0  0  0  0  0  0  0  0  0  0  0
    4.5880    0.0240    0.0000 C   0  0  0  0  0  0  0  0  0  0  0  0
    6.0030    0.0330    0.0000 N   0  0  0  0  0  0  0  0  0  0  0  0
    6.6610    1.1890    0.0000 C   0  0  0  0  0  0  0  0  0  0  0  0
    6.0400    2.2500    0.0000 O   0  0  0  0  0  0  0  0  0  0  0  0
    8.1410    1.1970    0.0000 C   0  0  0  0  0  0  0  0  0  0  0  0
    8.7570    0.1450    0.0000 O   0  0  0  0  0  0  0  0  0  0  0  0
    8.7890    2.3360    0.0000 O   0  0  0  0  0  0  0  0  0  0  0  0
    3.8880    0.0200   -1.2120 C   0  0  0  0  0  0  0  0  0  0  0  0
    2.4880    0.0120   -1.2120 C   0  0  0  0  0  0  0  0  0  0  0  0
    1.7330    0.0070   -2.5200 C   0  0  0  0  0  0  0  0  0  0  0  0
  1  2  1  0  0  0  0
  2  3  2  0  0  0  0
  3  4  1  0  0  0  0
  3  5  1  0  0  0  0
  5  6  2  0  0  0  0
  6  7  1  0  0  0  0
  7  8  1  0  0  0  0
  8  9  2  0  0  0  0
  8 10  1  0  0  0  0
 10 11  2  0  0  0  0
 10 12  1  0  0  0  0
  6 13  1  0  0  0  0
 13 14  2  0  0  0  0
 14  2  1  0  0  0  0
 14 15  1  0  0  0  0
M  END
>  <BIO>
0.19

$$$$
Unnamed
  -MTS-   06200418093D 0   0.00000     0.00000     0

 15 15  0  0  0  0  0  0  0  0  1 V2000
    0.0180   -0.0030    0.0000 S   0  0  0  0  0  0  0  0  0  0  0  0
    1.7880    0.0070    0.0000 C   0  0  0  0  0  0  0  0  0  0  0  0
    2.4880    0.0110    1.2120 C   0  0  0  0  0  0  0  0  0  0  0  0
    1.7330    0.0070    2.5200 C   0  0  0  0  0  0  0  0  0  0  0  0
    3.8880    0.0200    1.2120 C   0  0  0  0  0  0  0  0  0  0  0  0
    4.5880    0.0240    0.0000 C   0  0  0  0  0  0  0  0  0  0  0  0
    6.0030    0.0320    0.0000 N   0  0  0  0  0  0  0  0  0  0  0  0
    6.6610    1.1880    0.0000 C   0  0  0  0  0  0  0  0  0  0  0  0
    6.0400    2.2500    0.0000 O   0  0  0  0  0  0  0  0  0  0  0  0
    8.1410    1.1970    0.0000 C   0  0  0  0  0  0  0  0  0  0  0  0
    8.7630    0.1360    0.0000 O   0  0  0  0  0  0  0  0  0  0  0  0
    8.7990    2.3530    0.0000 N   0  0  0  0  0  0  0  0  0  0  0  0
    3.8880    0.0200   -1.2120 C   0  0  0  0  0  0  0  0  0  0  0  0
    2.4880    0.0120   -1.2120 C   0  0  0  0  0  0  0  0  0  0  0  0
    1.7330    0.0070   -2.5200 C   0  0  0  0  0  0  0  0  0  0  0  0
  1  2  1  0  0  0  0
  2  3  2  0  0  0  0
  3  4  1  0  0  0  0
  3  5  1  0  0  0  0
  5  6  2  0  0  0  0
  6  7  1  0  0  0  0
  7  8  1  0  0  0  0
  8  9  2  0  0  0  0
  8 10  1  0  0  0  0
 10 11  2  0  0  0  0
 10 12  1  0  0  0  0
  6 13  1  0  0  0  0
 13 14  2  0  0  0  0
 14  2  1  0  0  0  0
 14 15  1  0  0  0  0
M  END
>  <BIO>
0.95

$$$$
Unnamed
  -MTS-   06200418093D 0   0.00000     0.00000     0

 16 16  0  0  0  0  0  0  0  0  1 V2000
    0.0180   -0.0030    0.0000 S   0  0  0  0  0  0  0  0  0  0  0  0
    1.7880    0.0070    0.0000 C   0  0  0  0  0  0  0  0  0  0  0  0
    2.4880    0.0110    1.2130 C   0  0  0  0  0  0  0  0  0  0  0  0
    1.7330    0.0070    2.5200 C   0  0  0  0  0  0  0  0  0  0  0  0
    3.8880    0.0200    1.2120 C   0  0  0  0  0  0  0  0  0  0  0  0
    4.5880    0.0240    0.0000 C   0  0  0  0  0  0  0  0  0  0  0  0
    6.0030    0.0320    0.0000 N   0  0  0  0  0  0  0  0  0  0  0  0
    6.7460   -1.2360    0.0000 C   0  0  0  0  0  0  0  0  0  0  0  0
    6.6610    1.1880    0.0000 C   0  0  0  0  0  0  0  0  0  0  0  0
    6.0400    2.2500    0.0000 O   0  0  0  0  0  0  0  0  0  0  0  0
    8.1410    1.1970    0.0000 C   0  0  0  0  0  0  0  0  0  0  0  0
    8.7570    0.1440    0.0000 O   0  0  0  0  0  0  0  0  0  0  0  0
    8.7900    2.3350    0.0000 O   0  0  0  0  0  0  0  0  0  0  0  0
    3.8880    0.0200   -1.2120 C   0  0  0  0  0  0  0  0  0  0  0  0
    2.4880    0.0110   -1.2120 C   0  0  0  0  0  0  0  0  0  0  0  0
    1.7330    0.0070   -2.5200 C   0  0  0  0  0  0  0  0  0  0  0  0
  1  2  1  0  0  0  0
  2  3  2  0  0  0  0
  3  4  1  0  0  0  0
  3  5  1  0  0  0  0
  5  6  2  0  0  0  0
  6  7  1  0  0  0  0
  7  8  1  0  0  0  0
  7  9  1  0  0  0  0
  9 10  2  0  0  0  0
  9 11  1  0  0  0  0
 11 12  2  0  0  0  0
 11 13  1  0  0  0  0
  6 14  1  0  0  0  0
 14 15  2  0  0  0  0
 15  2  1  0  0  0  0
 15 16  1  0  0  0  0
M  END
>  <BIO>
120.00

$$$$
Unnamed
  -MTS-   06200418093D 0   0.00000     0.00000     0

 19 19  0  0  0  0  0  0  0  0  1 V2000
    0.0180   -0.0030    0.0000 S   0  0  0  0  0  0  0  0  0  0  0  0
    1.7880    0.0070    0.0000 C   0  0  0  0  0  0  0  0  0  0  0  0
    2.4880    0.0120   -1.2120 C   0  0  0  0  0  0  0  0  0  0  0  0
    1.7330    0.0070   -2.5200 C   0  0  0  0  0  0  0  0  0  0  0  0
    1.4700    1.4440   -2.9610 C   0  0  0  0  0  0  0  0  0  0  0  0
    2.5620   -0.7070   -3.5840 C   0  0  0  0  0  0  0  0  0  0  0  0
    3.8880    0.0200   -1.2130 C   0  0  0  0  0  0  0  0  0  0  0  0
    4.5880    0.0240    0.0000 C   0  0  0  0  0  0  0  0  0  0  0  0
    6.0030    0.0330    0.0000 N   0  0  0  0  0  0  0  0  0  0  0  0
    6.6610    1.1880    0.0000 C   0  0  0  0  0  0  0  0  0  0  0  0
    6.0400    2.2500    0.0000 O   0  0  0  0  0  0  0  0  0  0  0  0
    8.1410    1.1970    0.0000 C   0  0  0  0  0  0  0  0  0  0  0  0
    8.7570    0.1440    0.0000 O   0  0  0  0  0  0  0  0  0  0  0  0
    8.7890    2.3360    0.0000 O   0  0  0  0  0  0  0  0  0  0  0  0
    3.8880    0.0200    1.2120 C   0  0  0  0  0  0  0  0  0  0  0  0
    2.4880    0.0120    1.2120 C   0  0  0  0  0  0  0  0  0  0  0  0
    1.7330    0.0070    2.5200 C   0  0  0  0  0  0  0  0  0  0  0  0
    1.4880   -1.4330    2.9610 C   0  0  0  0  0  0  0  0  0  0  0  0
    2.5540    0.7310    3.5840 C   0  0  0  0  0  0  0  0  0  0  0  0
  1  2  1  0  0  0  0
  2  3  2  0  0  0  0
  3  4  1  0  0  0  0
  4  5  1  0  0  0  0
  4  6  1  0  0  0  0
  3  7  1  0  0  0  0
  7  8  2  0  0  0  0
  8  9  1  0  0  0  0
  9 10  1  0  0  0  0
 10 11  2  0  0  0  0
 10 12  1  0  0  0  0
 12 13  2  0  0  0  0
 12 14  1  0  0  0  0
  8 15  1  0  0  0  0
 15 16  2  0  0  0  0
 16  2  1  0  0  0  0
 16 17  1  0  0  0  0
 17 18  1  0  0  0  0
 17 19  1  0  0  0  0
M  END
>  <BIO>
22.00

$$$$
Unnamed
  -MTS-   06200418093D 0   0.00000     0.00000     0

 17 17  0  0  0  0  0  0  0  0  1 V2000
    0.0180   -0.0030    0.0000 S   0  0  0  0  0  0  0  0  0  0  0  0
    1.7880    0.0070    0.0000 C   0  0  0  0  0  0  0  0  0  0  0  0
    2.4880    0.0120    1.2120 C   0  0  0  0  0  0  0  0  0  0  0  0
    1.7330    0.0070    2.5200 C   0  0  0  0  0  0  0  0  0  0  0  0
    3.8880    0.0200    1.2120 C   0  0  0  0  0  0  0  0  0  0  0  0
    4.5880    0.0240    0.0000 C   0  0  0  0  0  0  0  0  0  0  0  0
    6.0030    0.0330    0.0000 N   0  0  0  0  0  0  0  0  0  0  0  0
    6.6610    1.1880    0.0000 C   0  0  0  0  0  0  0  0  0  0  0  0
    6.0400    2.2500    0.0000 O   0  0  0  0  0  0  0  0  0  0  0  0
    8.1410    1.1970    0.0000 C   0  0  0  0  0  0  0  0  0  0  0  0
    8.7450    0.1660    0.0000 O   0  0  0  0  0  0  0  0  0  0  0  0
    8.7890    2.3360    0.0000 O   0  0  0  0  0  0  0  0  0  0  0  0
   10.2190    2.2940    0.0000 C   0  0  0  0  0  0  0  0  0  0  0  0
   10.7690    3.7180    0.0000 C   0  0  0  0  0  0  0  0  0  0  0  0
    3.8880    0.0200   -1.2130 C   0  0  0  0  0  0  0  0  0  0  0  0
    2.4880    0.0110   -1.2130 C   0  0  0  0  0  0  0  0  0  0  0  0
    1.7330    0.0070   -2.5200 C   0  0  0  0  0  0  0  0  0  0  0  0
  1  2  1  0  0  0  0
  2  3  2  0  0  0  0
  3  4  1  0  0  0  0
  3  5  1  0  0  0  0
  5  6  2  0  0  0  0
  6  7  1  0  0  0  0
  7  8  1  0  0  0  0
  8  9  2  0  0  0  0
  8 10  1  0  0  0  0
 10 11  2  0  0  0  0
 10 12  1  0  0  0  0
 12 13  1  0  0  0  0
 13 14  1  0  0  0  0
  6 15  1  0  0  0  0
 15 16  2  0  0  0  0
 16  2  1  0  0  0  0
 16 17  1  0  0  0  0
M  END
>  <BIO>
0.23

$$$$
Unnamed
  -MTS-   06200418093D 0   0.00000     0.00000     0

 22 23  0  0  0  0  0  0  0  0  1 V2000
    0.0180   -0.0030    0.0000 S   0  0  0  0  0  0  0  0  0  0  0  0
    1.7880    0.0070    0.0000 C   0  0  0  0  0  0  0  0  0  0  0  0
    2.4880    0.0120    1.2130 C   0  0  0  0  0  0  0  0  0  0  0  0
    1.7330    0.0070    2.5200 C   0  0  0  0  0  0  0  0  0  0  0  0
    3.8880    0.0200    1.2130 C   0  0  0  0  0  0  0  0  0  0  0  0
    4.5880    0.0240    0.0000 C   0  0  0  0  0  0  0  0  0  0  0  0
    6.0030    0.0330    0.0000 N   0  0  0  0  0  0  0  0  0  0  0  0
    6.6610    1.1880    0.0000 C   0  0  0  0  0  0  0  0  0  0  0  0
    6.0400    2.2500    0.0000 O   0  0  0  0  0  0  0  0  0  0  0  0
    8.1410    1.1970    0.0000 C   0  0  0  0  0  0  0  0  0  0  0  0
    8.7450    0.1660    0.0000 O   0  0  0  0  0  0  0  0  0  0  0  0
    8.7890    2.3360    0.0000 O   0  0  0  0  0  0  0  0  0  0  0  0
   10.2190    2.2940    0.0000 C   0  0  0  0  0  0  0  0  0  0  0  0
   10.7630    3.7030    0.0000 C   0  0  0  0  0  0  0  0  0  0  0  0
   11.0150    4.3560    1.2130 C   0  0  0  0  0  0  0  0  0  0  0  0
   11.5200    5.6620    1.2130 C   0  0  0  0  0  0  0  0  0  0  0  0
   11.7720    6.3150    0.0000 C   0  0  0  0  0  0  0  0  0  0  0  0
   11.5200    5.6620   -1.2120 C   0  0  0  0  0  0  0  0  0  0  0  0
   11.0150    4.3560   -1.2120 C   0  0  0  0  0  0  0  0  0  0  0  0
    3.8880    0.0200   -1.2120 C   0  0  0  0  0  0  0  0  0  0  0  0
    2.4880    0.0120   -1.2120 C   0  0  0  0  0  0  0  0  0  0  0  0
    1.7330    0.0070   -2.5200 C   0  0  0  0  0  0  0  0  0  0  0  0
  1  2  1  0  0  0  0
  2  3  2  0  0  0  0
  3  4  1  0  0  0  0
  3  5  1  0  0  0  0
  5  6  2  0  0  0  0
  6  7  1  0  0  0  0
  7  8  1  0  0  0  0
  8  9  2  0  0  0  0
  8 10  1  0  0  0  0
 10 11  2  0  0  0  0
 10 12  1  0  0  0  0
 12 13  1  0  0  0  0
 13 14  1  0  0  0  0
 14 15  2  0  0  0  0
 15 16  1  0  0  0  0
 16 17  2  0  0  0  0
 17 18  1  0  0  0  0
 18 19  2  0  0  0  0
 19 14  1  0  0  0  0
  6 20  1  0  0  0  0
 20 21  2  0  0  0  0
 21  2  1  0  0  0  0
 21 22  1  0  0  0  0
M  END
>  <BIO>
0.26

$$$$
