107211.out.mol
  Mrv0541 03111415023D          

 10  9  0  0  0  0            999 V2000
    0.0000    0.0000    0.0000 C   0  0  1  0  0  0  0  0  0  0  0  0
    1.5262    0.0000    0.0000 C   0  0  1  0  0  0  0  0  0  0  0  0
   -0.5170    1.3137    0.0000 O   0  0  0  0  0  0  0  0  0  0  0  0
    1.9272    0.5966    1.2239 O   0  0  0  0  0  0  0  0  0  0  0  0
   -0.3835   -0.4669   -0.9452 H   0  0  0  0  0  0  0  0  0  0  0  0
   -0.3817   -0.5652    0.8914 H   0  0  0  0  0  0  0  0  0  0  0  0
    1.9152   -1.0501   -0.0621 H   0  0  0  0  0  0  0  0  0  0  0  0
    1.9170    0.5972   -0.8659 H   0  0  0  0  0  0  0  0  0  0  0  0
   -0.1434    1.7622    0.7701 H   0  0  0  0  0  0  0  0  0  0  0  0
    2.8875    0.6715    1.1974 H   0  0  0  0  0  0  0  0  0  0  0  0
  1  2  1  0  0  0  0
  1  3  1  0  0  0  0
  1  5  1  0  0  0  0
  1  6  1  0  0  0  0
  2  4  1  0  0  0  0
  2  7  1  0  0  0  0
  2  8  1  0  0  0  0
  3  9  1  0  0  0  0
  4 10  1  0  0  0  0
M  END