123546.out.mol
  Mrv0541 03111415023D          

 15 14  0  0  0  0            999 V2000
    0.0000    0.0000    0.0000 C   0  0  0  0  0  0  0  0  0  0  0  0
    1.5086    0.0000    0.0000 C   0  0  1  0  0  0  0  0  0  0  0  0
   -0.6449    1.3448    0.0000 C   0  0  0  0  0  0  0  0  0  0  0  0
   -0.6378   -1.0563    0.0167 O   0  0  0  0  0  0  0  0  0  0  0  0
    2.0619    0.3476   -1.3581 C   0  0  0  0  0  0  0  0  0  0  0  0
    2.7299   -0.7713   -2.0854 C   0  0  0  0  0  0  0  0  0  0  0  0
    1.9750    1.4886   -1.8222 O   0  0  0  0  0  0  0  0  0  0  0  0
    1.8676    0.7620    0.7429 H   0  0  0  0  0  0  0  0  0  0  0  0
    1.8829   -1.0083    0.3194 H   0  0  0  0  0  0  0  0  0  0  0  0
   -0.1456    2.0046   -0.7542 H   0  0  0  0  0  0  0  0  0  0  0  0
   -1.7329    1.2636   -0.2385 H   0  0  0  0  0  0  0  0  0  0  0  0
   -0.5312    1.8092    1.0105 H   0  0  0  0  0  0  0  0  0  0  0  0
    3.0665   -0.4417   -3.0984 H   0  0  0  0  0  0  0  0  0  0  0  0
    3.6183   -1.1199   -1.5035 H   0  0  0  0  0  0  0  0  0  0  0  0
    2.0186   -1.6267   -2.1961 H   0  0  0  0  0  0  0  0  0  0  0  0
  1  2  1  0  0  0  0
  1  3  1  0  0  0  0
  1  4  2  0  0  0  0
  2  5  1  0  0  0  0
  2  8  1  0  0  0  0
  2  9  1  0  0  0  0
  3 10  1  0  0  0  0
  3 11  1  0  0  0  0
  3 12  1  0  0  0  0
  5  6  1  0  0  0  0
  5  7  2  0  0  0  0
  6 13  1  0  0  0  0
  6 14  1  0  0  0  0
  6 15  1  0  0  0  0
M  END