112276.out.mol
  Mrv0541 03111415023D          

 24 23  0  0  0  0            999 V2000
    0.0000    0.0000    0.0000 C   0  0  1  0  0  0  0  0  0  0  0  0
    1.5260    0.0000    0.0000 C   0  0  1  0  0  0  0  0  0  0  0  0
   -0.3870    1.3721    0.0000 O   0  0  0  0  0  0  0  0  0  0  0  0
    1.9130   -1.3721    0.0006 O   0  0  0  0  0  0  0  0  0  0  0  0
   -1.8050    1.5304   -0.0205 C   0  0  1  0  0  0  0  0  0  0  0  0
    3.3310   -1.5304    0.0203 C   0  0  1  0  0  0  0  0  0  0  0  0
   -2.0623    3.0331    0.0287 C   0  0  1  0  0  0  0  0  0  0  0  0
    3.5883   -3.0331   -0.0283 C   0  0  1  0  0  0  0  0  0  0  0  0
   -1.6701    3.5881    1.2662 O   0  0  0  0  0  0  0  0  0  0  0  0
    3.1953   -3.5888   -1.2652 O   0  0  0  0  0  0  0  0  0  0  0  0
   -0.3971   -0.5119   -0.9151 H   0  0  0  0  0  0  0  0  0  0  0  0
   -0.3979   -0.5120    0.9147 H   0  0  0  0  0  0  0  0  0  0  0  0
    1.9238    0.5116   -0.9150 H   0  0  0  0  0  0  0  0  0  0  0  0
    1.9231    0.5124    0.9148 H   0  0  0  0  0  0  0  0  0  0  0  0
   -2.2232    1.0880   -0.9618 H   0  0  0  0  0  0  0  0  0  0  0  0
   -2.2548    1.0195    0.8711 H   0  0  0  0  0  0  0  0  0  0  0  0
    3.7803   -1.0200   -0.8718 H   0  0  0  0  0  0  0  0  0  0  0  0
    3.7497   -1.0874    0.9612 H   0  0  0  0  0  0  0  0  0  0  0  0
   -1.5222    3.5428   -0.8128 H   0  0  0  0  0  0  0  0  0  0  0  0
   -3.1644    3.2314   -0.0449 H   0  0  0  0  0  0  0  0  0  0  0  0
    4.6904   -3.2314    0.0449 H   0  0  0  0  0  0  0  0  0  0  0  0
    3.0486   -3.5423    0.8138 H   0  0  0  0  0  0  0  0  0  0  0  0
   -0.7346    3.3786    1.3844 H   0  0  0  0  0  0  0  0  0  0  0  0
    2.2598   -3.3792   -1.3831 H   0  0  0  0  0  0  0  0  0  0  0  0
  1  2  1  0  0  0  0
  1  3  1  0  0  0  0
  1 11  1  0  0  0  0
  1 12  1  0  0  0  0
  2  4  1  0  0  0  0
  2 13  1  0  0  0  0
  2 14  1  0  0  0  0
  3  5  1  0  0  0  0
  4  6  1  0  0  0  0
  5  7  1  0  0  0  0
  5 15  1  0  0  0  0
  5 16  1  0  0  0  0
  6  8  1  0  0  0  0
  6 17  1  0  0  0  0
  6 18  1  0  0  0  0
  7  9  1  0  0  0  0
  7 19  1  0  0  0  0
  7 20  1  0  0  0  0
  8 10  1  0  0  0  0
  8 21  1  0  0  0  0
  8 22  1  0  0  0  0
  9 23  1  0  0  0  0
 10 24  1  0  0  0  0
M  END