82713.out
  Mrv0541 03111415023D          

 20 20  0  0  0  0            999 V2000
   -1.1684   -0.9363    0.0000 C   0  0  0  0  0  0  0  0  0  0  0  0
    0.0910   -1.5577    0.0000 C   0  0  0  0  0  0  0  0  0  0  0  0
    1.2570   -0.8001    0.0000 C   0  0  0  0  0  0  0  0  0  0  0  0
    1.2006    0.6313    0.0000 C   0  0  0  0  0  0  0  0  0  0  0  0
   -0.0703    1.2620    0.0000 C   0  0  0  0  0  0  0  0  0  0  0  0
   -1.2700    0.4797    0.0000 C   0  0  0  0  0  0  0  0  0  0  0  0
    0.1572   -2.6705    0.0000 H   0  0  0  0  0  0  0  0  0  0  0  0
    2.5661   -1.5070    0.0000 N   0  3  0  0  0  0  0  0  0  0  0  0
    2.3949    1.2438    0.0000 O   0  0  0  0  0  0  0  0  0  0  0  0
   -0.1879    2.7370    0.0000 N   0  3  0  0  0  0  0  0  0  0  0  0
   -2.4151    1.1851    0.0000 O   0  0  0  0  0  0  0  0  0  0  0  0
   -2.3610   -1.8103    0.0000 N   0  3  0  0  0  0  0  0  0  0  0  0
   -3.4559   -1.3038    0.0000 O   0  0  0  0  0  0  0  0  0  0  0  0
   -2.2090   -2.9981    0.0000 O   0  5  0  0  0  0  0  0  0  0  0  0
   -1.2703    3.2421    0.0000 O   0  0  0  0  0  0  0  0  0  0  0  0
    0.8260    3.3954    0.0000 O   0  5  0  0  0  0  0  0  0  0  0  0
    3.5765   -0.8667    0.0000 O   0  0  0  0  0  0  0  0  0  0  0  0
    2.5529   -2.7093    0.0000 O   0  5  0  0  0  0  0  0  0  0  0  0
   -3.2167    0.6257    0.0000 H   0  0  0  0  0  0  0  0  0  0  0  0
    2.3442    2.2201    0.0000 H   0  0  0  0  0  0  0  0  0  0  0  0
  2  1  1  0  0  0  0
  3  2  2  0  0  0  0
  4  3  1  0  0  0  0
  5  4  2  0  0  0  0
  6  1  2  0  0  0  0
  6  5  1  0  0  0  0
  7  2  1  0  0  0  0
  8  3  1  0  0  0  0
  9  4  1  0  0  0  0
 10  5  1  0  0  0  0
 11  6  1  0  0  0  0
 12  1  1  0  0  0  0
 13 12  2  0  0  0  0
 14 12  1  0  0  0  0
 15 10  2  0  0  0  0
 16 10  1  0  0  0  0
 17  8  2  0  0  0  0
 18  8  1  0  0  0  0
 19 11  1  0  0  0  0
 20  9  1  0  0  0  0
M  CHG  6   8   1  10   1  12   1  14  -1  16  -1  18  -1
M  END