55949387.out.mol
  Mrv0541 03111415023D          

 11 11  0  0  0  0            999 V2000
    0.0000    0.0000    0.0000 C   0  0  0  0  0  0  0  0  0  0  0  0
    1.3789    0.0000    0.0000 N   0  0  0  0  0  0  0  0  0  0  0  0
    1.9540    1.2164    0.0000 C   0  0  0  0  0  0  0  0  0  0  0  0
    1.2102    2.4105    0.0005 C   0  0  0  0  0  0  0  0  0  0  0  0
   -0.1923    2.2852    0.0016 C   0  0  0  0  0  0  0  0  0  0  0  0
   -0.8308    1.0998    0.0027 N   0  0  0  0  0  0  0  0  0  0  0  0
   -0.6621   -1.2057   -0.0005 O   0  0  0  0  0  0  0  0  0  0  0  0
    3.0595    1.2246    0.0004 H   0  0  0  0  0  0  0  0  0  0  0  0
    1.6983    3.3902    0.0009 H   0  0  0  0  0  0  0  0  0  0  0  0
   -0.8488    3.1752    0.0017 H   0  0  0  0  0  0  0  0  0  0  0  0
   -0.0004   -1.9193   -0.0004 H   0  0  0  0  0  0  0  0  0  0  0  0
  1  2  1  0  0  0  0
  1  6  2  0  0  0  0
  1  7  1  0  0  0  0
  2  3  2  0  0  0  0
  3  4  1  0  0  0  0
  3  8  1  0  0  0  0
  4  5  2  0  0  0  0
  4  9  1  0  0  0  0
  5  6  1  0  0  0  0
  5 10  1  0  0  0  0
  7 11  1  0  0  0  0
M  END