141786.out.mol
  Mrv0541 03111415023D          

 14 13  0  0  0  0            999 V2000
    0.0000    0.0000    0.0000 O   0  0  0  0  0  0  0  0  0  0  0  0
    1.3676    0.0000    0.0000 C   0  0  0  0  0  0  0  0  0  0  0  0
   -0.6437    1.2868    0.0000 C   0  0  1  0  0  0  0  0  0  0  0  0
    1.9482   -1.3710    0.0006 C   0  0  0  0  0  0  0  0  0  0  0  0
    1.9532    1.0848   -0.0005 O   0  0  0  0  0  0  0  0  0  0  0  0
   -2.1285    1.0174    0.0006 C   0  0  0  0  0  0  0  0  0  0  0  0
   -0.3178    1.8512    0.9124 H   0  0  0  0  0  0  0  0  0  0  0  0
   -0.3196    1.8501   -0.9137 H   0  0  0  0  0  0  0  0  0  0  0  0
    1.6035   -1.9255   -0.9060 H   0  0  0  0  0  0  0  0  0  0  0  0
    3.0626   -1.3011   -0.0015 H   0  0  0  0  0  0  0  0  0  0  0  0
    1.6068   -1.9230    0.9099 H   0  0  0  0  0  0  0  0  0  0  0  0
   -2.4219    0.4325   -0.9035 H   0  0  0  0  0  0  0  0  0  0  0  0
   -2.4213    0.4341    0.9060 H   0  0  0  0  0  0  0  0  0  0  0  0
   -2.6742    1.9910    0.0002 H   0  0  0  0  0  0  0  0  0  0  0  0
  1  2  1  0  0  0  0
  1  3  1  0  0  0  0
  2  4  1  0  0  0  0
  2  5  2  0  0  0  0
  3  6  1  0  0  0  0
  3  7  1  0  0  0  0
  3  8  1  0  0  0  0
  4  9  1  0  0  0  0
  4 10  1  0  0  0  0
  4 11  1  0  0  0  0
  6 12  1  0  0  0  0
  6 13  1  0  0  0  0
  6 14  1  0  0  0  0
M  END