107062.out.mol
  Mrv0541 03111415023D          

  8  7  0  0  0  0            999 V2000
    0.0000    0.0000    0.0000 C   0  0  1  0  0  0  0  0  0  0  0  0
    1.5078    0.0000    0.0000 C   0  0  1  0  0  0  0  0  0  0  0  0
   -0.6110    1.6443    0.0000 Cl  0  0  0  0  0  0  0  0  0  0  0  0
    2.1189   -1.6443   -0.0007 Cl  0  0  0  0  0  0  0  0  0  0  0  0
   -0.4084   -0.4976   -0.9128 H   0  0  0  0  0  0  0  0  0  0  0  0
   -0.4084   -0.4976    0.9128 H   0  0  0  0  0  0  0  0  0  0  0  0
    1.9162    0.4978   -0.9127 H   0  0  0  0  0  0  0  0  0  0  0  0
    1.9163    0.4974    0.9129 H   0  0  0  0  0  0  0  0  0  0  0  0
  1  2  1  0  0  0  0
  1  3  1  0  0  0  0
  1  5  1  0  0  0  0
  1  6  1  0  0  0  0
  2  4  1  0  0  0  0
  2  7  1  0  0  0  0
  2  8  1  0  0  0  0
M  END