2489772.out.mol
  Mrv0541 03111415023D          

 17 16  0  0  0  0            999 V2000
    0.0000    0.0000    0.0000 C   0  0  0  0  0  0  0  0  0  0  0  0
    1.3885    0.0000    0.0000 N   0  0  0  0  0  0  0  0  0  0  0  0
   -0.7229    1.1880    0.0000 N   0  0  0  0  0  0  0  0  0  0  0  0
   -0.8588   -1.3919    0.0140 S   0  0  0  0  0  0  0  0  0  0  0  0
    2.0760   -1.2683   -0.0442 C   0  0  0  0  0  0  0  0  0  0  0  0
    2.1704    1.1315    0.4168 C   0  0  0  0  0  0  0  0  0  0  0  0
   -0.2711    2.4429   -0.5115 C   0  0  0  0  0  0  0  0  0  0  0  0
   -1.7121    1.0280   -0.0310 H   0  0  0  0  0  0  0  0  0  0  0  0
    2.2779   -1.6495    0.9930 H   0  0  0  0  0  0  0  0  0  0  0  0
    1.4532   -2.0299   -0.5909 H   0  0  0  0  0  0  0  0  0  0  0  0
    3.0499   -1.1238   -0.5829 H   0  0  0  0  0  0  0  0  0  0  0  0
    1.7049    1.6481    1.2988 H   0  0  0  0  0  0  0  0  0  0  0  0
    3.1992    0.7936    0.7159 H   0  0  0  0  0  0  0  0  0  0  0  0
    2.2742    1.8649   -0.4277 H   0  0  0  0  0  0  0  0  0  0  0  0
    0.3355    2.9881    0.2614 H   0  0  0  0  0  0  0  0  0  0  0  0
    0.3508    2.3221   -1.4393 H   0  0  0  0  0  0  0  0  0  0  0  0
   -1.1637    3.0767   -0.7638 H   0  0  0  0  0  0  0  0  0  0  0  0
  1  2  1  0  0  0  0
  1  3  1  0  0  0  0
  1  4  2  0  0  0  0
  2  5  1  0  0  0  0
  2  6  1  0  0  0  0
  3  7  1  0  0  0  0
  3  8  1  0  0  0  0
  5  9  1  0  0  0  0
  5 10  1  0  0  0  0
  5 11  1  0  0  0  0
  6 12  1  0  0  0  0
  6 13  1  0  0  0  0
  6 14  1  0  0  0  0
  7 15  1  0  0  0  0
  7 16  1  0  0  0  0
  7 17  1  0  0  0  0
M  END