71432.out.mol
  Mrv0541 03111415023D          

 12 12  0  0  0  0            999 V2000
    0.0000    0.0000    0.0000 C   0  0  0  0  0  0  0  0  0  0  0  0
    1.3950    0.0000    0.0000 C   0  0  0  0  0  0  0  0  0  0  0  0
   -0.6975    1.2081    0.0000 C   0  0  0  0  0  0  0  0  0  0  0  0
    2.0926    1.2081   -0.0005 C   0  0  0  0  0  0  0  0  0  0  0  0
    0.0000    2.4163   -0.0005 C   0  0  0  0  0  0  0  0  0  0  0  0
    1.3950    2.4163   -0.0016 C   0  0  0  0  0  0  0  0  0  0  0  0
   -0.5498   -0.9523    0.0004 H   0  0  0  0  0  0  0  0  0  0  0  0
    1.9449   -0.9523    0.0004 H   0  0  0  0  0  0  0  0  0  0  0  0
   -1.7972    1.2081    0.0004 H   0  0  0  0  0  0  0  0  0  0  0  0
    3.1922    1.2081   -0.0010 H   0  0  0  0  0  0  0  0  0  0  0  0
   -0.5498    3.3686   -0.0010 H   0  0  0  0  0  0  0  0  0  0  0  0
    1.9449    3.3686   -0.0016 H   0  0  0  0  0  0  0  0  0  0  0  0
  1  2  2  0  0  0  0
  1  3  1  0  0  0  0
  1  7  1  0  0  0  0
  2  4  1  0  0  0  0
  2  8  1  0  0  0  0
  3  5  2  0  0  0  0
  3  9  1  0  0  0  0
  4  6  2  0  0  0  0
  4 10  1  0  0  0  0
  5  6  1  0  0  0  0
  5 11  1  0  0  0  0
  6 12  1  0  0  0  0
M  END