67663.out.mol
  Mrv0541 03111415023D          

  5  4  0  0  0  0            999 V2000
    0.0000    0.0000    0.0000 C   0  0  1  0  0  0  0  0  0  0  0  0
    1.7480    0.0000    0.0000 Cl  0  0  0  0  0  0  0  0  0  0  0  0
   -0.6322    1.6297    0.0000 Cl  0  0  0  0  0  0  0  0  0  0  0  0
   -0.6322   -0.9234   -1.3428 Cl  0  0  0  0  0  0  0  0  0  0  0  0
   -0.3391   -0.4952    0.9415 H   0  0  0  0  0  0  0  0  0  0  0  0
  1  2  1  0  0  0  0
  1  3  1  0  0  0  0
  1  4  1  0  0  0  0
  1  5  1  0  0  0  0
M  END