75092.out.mol
  Mrv0541 03111415023D          

  5  4  0  0  0  0            999 V2000
    0.0000    0.0000    0.0000 C   0  0  1  0  0  0  0  0  0  0  0  0
    1.7413    0.0000    0.0000 Cl  0  0  0  0  0  0  0  0  0  0  0  0
   -0.6795    1.6033    0.0000 Cl  0  0  0  0  0  0  0  0  0  0  0  0
   -0.3432   -0.5183   -0.9234 H   0  0  0  0  0  0  0  0  0  0  0  0
   -0.3433   -0.5183    0.9234 H   0  0  0  0  0  0  0  0  0  0  0  0
  1  2  1  0  0  0  0
  1  3  1  0  0  0  0
  1  4  1  0  0  0  0
  1  5  1  0  0  0  0
M  END