142289.out.mol
  Mrv0541 03111415023D          

 11 10  0  0  0  0            999 V2000
    0.0000    0.0000    0.0000 C   0  0  1  0  0  0  0  0  0  0  0  0
    1.5094    0.0000    0.0000 C   0  0  1  0  0  0  0  0  0  0  0  0
   -0.5972    1.3862    0.0000 C   0  0  1  0  0  0  0  0  0  0  0  0
    2.1800    0.5221   -1.5384 Cl  0  0  0  0  0  0  0  0  0  0  0  0
   -0.3838    2.2084    1.5387 Cl  0  0  0  0  0  0  0  0  0  0  0  0
   -0.3821   -0.5461   -0.9050 H   0  0  0  0  0  0  0  0  0  0  0  0
   -0.3503   -0.5671    0.9050 H   0  0  0  0  0  0  0  0  0  0  0  0
    1.9142    0.6950    0.7751 H   0  0  0  0  0  0  0  0  0  0  0  0
    1.9003   -1.0314    0.1747 H   0  0  0  0  0  0  0  0  0  0  0  0
   -0.1188    2.0331   -0.7748 H   0  0  0  0  0  0  0  0  0  0  0  0
   -1.6990    1.3372   -0.1752 H   0  0  0  0  0  0  0  0  0  0  0  0
  1  2  1  0  0  0  0
  1  3  1  0  0  0  0
  1  6  1  0  0  0  0
  1  7  1  0  0  0  0
  2  4  1  0  0  0  0
  2  8  1  0  0  0  0
  2  9  1  0  0  0  0
  3  5  1  0  0  0  0
  3 10  1  0  0  0  0
  3 11  1  0  0  0  0
M  END