156605.out.mol
  Mrv0541 03111415023D          

  6  5  0  0  0  0            999 V2000
    0.0000    0.0000    0.0000 C   0  0  0  0  0  0  0  0  0  0  0  0
    1.3354    0.0000    0.0000 C   0  0  0  0  0  0  0  0  0  0  0  0
   -0.8968    1.4328    0.0000 Cl  0  0  0  0  0  0  0  0  0  0  0  0
    2.2323   -1.4328    0.0006 Cl  0  0  0  0  0  0  0  0  0  0  0  0
   -0.6254   -0.9030   -0.0004 H   0  0  0  0  0  0  0  0  0  0  0  0
    1.9608    0.9031    0.0004 H   0  0  0  0  0  0  0  0  0  0  0  0
  1  2  2  0  0  0  0
  1  3  1  0  0  0  0
  1  5  1  0  0  0  0
  2  4  1  0  0  0  0
  2  6  1  0  0  0  0
M  END