105555.out.mol
  Mrv0541 03111415023D          

 20 19  0  0  0  0            999 V2000
    0.0000    0.0000    0.0000 C   0  0  0  0  0  0  0  0  0  0  0  0
    1.3891    0.0000    0.0000 N   0  0  0  0  0  0  0  0  0  0  0  0
   -0.6746    1.2012    0.0000 N   0  0  0  0  0  0  0  0  0  0  0  0
   -0.7602   -1.4460   -0.0721 S   0  0  0  0  0  0  0  0  0  0  0  0
    2.2321    1.1345    0.2466 C   0  0  1  0  0  0  0  0  0  0  0  0
   -2.1141    1.2731   -0.0240 C   0  0  1  0  0  0  0  0  0  0  0  0
    2.2660    1.6426    1.6811 C   0  0  0  0  0  0  0  0  0  0  0  0
   -2.7029    2.1253    1.0891 C   0  0  0  0  0  0  0  0  0  0  0  0
    1.7943   -0.9074    0.1070 H   0  0  0  0  0  0  0  0  0  0  0  0
   -0.1888    2.0583    0.1326 H   0  0  0  0  0  0  0  0  0  0  0  0
    3.2797    0.8337   -0.0501 H   0  0  0  0  0  0  0  0  0  0  0  0
    1.9295    1.9812   -0.4355 H   0  0  0  0  0  0  0  0  0  0  0  0
   -2.4177    1.7095   -1.0205 H   0  0  0  0  0  0  0  0  0  0  0  0
   -2.5350    0.2224    0.0397 H   0  0  0  0  0  0  0  0  0  0  0  0
    1.2608    1.9952    2.0136 H   0  0  0  0  0  0  0  0  0  0  0  0
    2.6061    0.8432    2.3824 H   0  0  0  0  0  0  0  0  0  0  0  0
    2.9810    2.4979    1.7446 H   0  0  0  0  0  0  0  0  0  0  0  0
   -2.4675    1.6978    2.0931 H   0  0  0  0  0  0  0  0  0  0  0  0
   -2.3204    3.1735    1.0502 H   0  0  0  0  0  0  0  0  0  0  0  0
   -3.8126    2.1487    0.9650 H   0  0  0  0  0  0  0  0  0  0  0  0
  1  2  1  0  0  0  0
  1  3  1  0  0  0  0
  1  4  2  0  0  0  0
  2  5  1  0  0  0  0
  2  9  1  0  0  0  0
  3  6  1  0  0  0  0
  3 10  1  0  0  0  0
  5  7  1  0  0  0  0
  5 11  1  0  0  0  0
  5 12  1  0  0  0  0
  6  8  1  0  0  0  0
  6 13  1  0  0  0  0
  6 14  1  0  0  0  0
  7 15  1  0  0  0  0
  7 16  1  0  0  0  0
  7 17  1  0  0  0  0
  8 18  1  0  0  0  0
  8 19  1  0  0  0  0
  8 20  1  0  0  0  0
M  END