105373.out.mol
  Mrv0541 03111415023D          

 17 16  0  0  0  0            999 V2000
    0.0000    0.0000    0.0000 C   0  0  0  0  0  0  0  0  0  0  0  0
    1.3685    0.0000    0.0000 O   0  0  0  0  0  0  0  0  0  0  0  0
   -0.5694    1.3846    0.0000 C   0  0  1  0  0  0  0  0  0  0  0  0
   -0.5825   -1.0860    0.0005 O   0  0  0  0  0  0  0  0  0  0  0  0
    2.0121   -1.2866    0.0006 C   0  0  1  0  0  0  0  0  0  0  0  0
   -2.0755    1.3647   -0.0006 C   0  0  0  0  0  0  0  0  0  0  0  0
    3.4970   -1.0173    0.0011 C   0  0  0  0  0  0  0  0  0  0  0  0
   -0.1802    1.9227    0.9055 H   0  0  0  0  0  0  0  0  0  0  0  0
   -0.1797    1.9231   -0.9050 H   0  0  0  0  0  0  0  0  0  0  0  0
    1.6867   -1.8505    0.9133 H   0  0  0  0  0  0  0  0  0  0  0  0
    1.6878   -1.8506   -0.9127 H   0  0  0  0  0  0  0  0  0  0  0  0
   -2.4611    0.8353   -0.9054 H   0  0  0  0  0  0  0  0  0  0  0  0
   -2.4617    0.8313    0.9016 H   0  0  0  0  0  0  0  0  0  0  0  0
   -2.4677    2.4099    0.0015 H   0  0  0  0  0  0  0  0  0  0  0  0
    3.7903   -0.4325   -0.9031 H   0  0  0  0  0  0  0  0  0  0  0  0
    3.7899   -0.4339    0.9064 H   0  0  0  0  0  0  0  0  0  0  0  0
    4.0427   -1.9909    0.0011 H   0  0  0  0  0  0  0  0  0  0  0  0
  1  2  1  0  0  0  0
  1  3  1  0  0  0  0
  1  4  2  0  0  0  0
  2  5  1  0  0  0  0
  3  6  1  0  0  0  0
  3  8  1  0  0  0  0
  3  9  1  0  0  0  0
  5  7  1  0  0  0  0
  5 10  1  0  0  0  0
  5 11  1  0  0  0  0
  6 12  1  0  0  0  0
  6 13  1  0  0  0  0
  6 14  1  0  0  0  0
  7 15  1  0  0  0  0
  7 16  1  0  0  0  0
  7 17  1  0  0  0  0
M  END