107073.out.mol
  Mrv0541 03111415023D          

  9  8  0  0  0  0            999 V2000
    0.0000    0.0000    0.0000 C   0  0  1  0  0  0  0  0  0  0  0  0
    1.5169    0.0000    0.0000 C   0  0  1  0  0  0  0  0  0  0  0  0
   -0.5372    1.3056    0.0000 O   0  0  0  0  0  0  0  0  0  0  0  0
    2.1749    0.4535   -1.5638 Cl  0  0  0  0  0  0  0  0  0  0  0  0
   -0.3986   -0.5870   -0.8705 H   0  0  0  0  0  0  0  0  0  0  0  0
   -0.3726   -0.4555    0.9591 H   0  0  0  0  0  0  0  0  0  0  0  0
    1.9119    0.7386    0.7381 H   0  0  0  0  0  0  0  0  0  0  0  0
    1.9068   -1.0199    0.2280 H   0  0  0  0  0  0  0  0  0  0  0  0
   -0.2453    1.7374   -0.8131 H   0  0  0  0  0  0  0  0  0  0  0  0
  1  2  1  0  0  0  0
  1  3  1  0  0  0  0
  1  5  1  0  0  0  0
  1  6  1  0  0  0  0
  2  4  1  0  0  0  0
  2  7  1  0  0  0  0
  2  8  1  0  0  0  0
  3  9  1  0  0  0  0
M  END