111911.out.mol
  Mrv0541 03111415023D          

 19 18  0  0  0  0            999 V2000
    0.0000    0.0000    0.0000 C   0  0  1  0  0  0  0  0  0  0  0  0
    1.4076    0.0000    0.0000 O   0  0  0  0  0  0  0  0  0  0  0  0
   -0.4233    1.3454    0.0000 O   0  0  0  0  0  0  0  0  0  0  0  0
    1.9920    0.5311    1.1923 C   0  0  1  0  0  0  0  0  0  0  0  0
   -0.1349    2.0517   -1.2070 C   0  0  1  0  0  0  0  0  0  0  0  0
    3.4802    0.2595    1.1140 C   0  0  1  0  0  0  0  0  0  0  0  0
   -0.2748    3.5298   -0.9039 C   0  0  1  0  0  0  0  0  0  0  0  0
    3.9103   -1.3270    1.7282 Cl  0  0  0  0  0  0  0  0  0  0  0  0
    1.1742    4.2085   -0.1822 Cl  0  0  0  0  0  0  0  0  0  0  0  0
   -0.2937   -0.5512   -0.9324 H   0  0  0  0  0  0  0  0  0  0  0  0
   -0.4406   -0.4425    0.9330 H   0  0  0  0  0  0  0  0  0  0  0  0
    1.8035    1.6397    1.2156 H   0  0  0  0  0  0  0  0  0  0  0  0
    1.5240    0.0552    2.0936 H   0  0  0  0  0  0  0  0  0  0  0  0
    0.8942    1.7943   -1.5718 H   0  0  0  0  0  0  0  0  0  0  0  0
   -0.8932    1.7509   -1.9806 H   0  0  0  0  0  0  0  0  0  0  0  0
    3.8334    0.3004    0.0554 H   0  0  0  0  0  0  0  0  0  0  0  0
    4.0335    1.0011    1.7380 H   0  0  0  0  0  0  0  0  0  0  0  0
   -0.4532    4.0957   -1.8489 H   0  0  0  0  0  0  0  0  0  0  0  0
   -1.1057    3.7070   -0.1792 H   0  0  0  0  0  0  0  0  0  0  0  0
  1  2  1  0  0  0  0
  1  3  1  0  0  0  0
  1 10  1  0  0  0  0
  1 11  1  0  0  0  0
  2  4  1  0  0  0  0
  3  5  1  0  0  0  0
  4  6  1  0  0  0  0
  4 12  1  0  0  0  0
  4 13  1  0  0  0  0
  5  7  1  0  0  0  0
  5 14  1  0  0  0  0
  5 15  1  0  0  0  0
  6  8  1  0  0  0  0
  6 16  1  0  0  0  0
  6 17  1  0  0  0  0
  7  9  1  0  0  0  0
  7 18  1  0  0  0  0
  7 19  1  0  0  0  0
M  END