111422.out.mol
  Mrv0541 03111415023D          

 18 17  0  0  0  0            999 V2000
    0.0000    0.0000    0.0000 N   0  0  1  0  0  0  0  0  0  0  0  0
    1.4488    0.0000    0.0000 C   0  0  1  0  0  0  0  0  0  0  0  0
   -0.5712    1.3315    0.0000 C   0  0  1  0  0  0  0  0  0  0  0  0
    2.0440   -1.4130    0.0167 C   0  0  1  0  0  0  0  0  0  0  0  0
   -2.1044    1.3214    0.0158 C   0  0  1  0  0  0  0  0  0  0  0  0
    1.9124   -2.0355    1.2762 O   0  0  0  0  0  0  0  0  0  0  0  0
   -2.6254    0.9544    1.2748 O   0  0  0  0  0  0  0  0  0  0  0  0
   -0.3507   -0.5321   -0.7756 H   0  0  0  0  0  0  0  0  0  0  0  0
    1.8760    0.5463   -0.8916 H   0  0  0  0  0  0  0  0  0  0  0  0
    1.7926    0.5396    0.9280 H   0  0  0  0  0  0  0  0  0  0  0  0
   -0.2113    1.8599    0.9284 H   0  0  0  0  0  0  0  0  0  0  0  0
   -0.2369    1.9397   -0.8912 H   0  0  0  0  0  0  0  0  0  0  0  0
    1.5847   -2.0567   -0.7810 H   0  0  0  0  0  0  0  0  0  0  0  0
    3.1529   -1.3480   -0.1523 H   0  0  0  0  0  0  0  0  0  0  0  0
   -2.4817    2.3662   -0.1529 H   0  0  0  0  0  0  0  0  0  0  0  0
   -2.5144    0.6460   -0.7826 H   0  0  0  0  0  0  0  0  0  0  0  0
    0.9769   -2.0215    1.5126 H   0  0  0  0  0  0  0  0  0  0  0  0
   -2.2438    0.1001    1.5110 H   0  0  0  0  0  0  0  0  0  0  0  0
  1  2  1  0  0  0  0
  1  3  1  0  0  0  0
  1  8  1  0  0  0  0
  2  4  1  0  0  0  0
  2  9  1  0  0  0  0
  2 10  1  0  0  0  0
  3  5  1  0  0  0  0
  3 11  1  0  0  0  0
  3 12  1  0  0  0  0
  4  6  1  0  0  0  0
  4 13  1  0  0  0  0
  4 14  1  0  0  0  0
  5  7  1  0  0  0  0
  5 15  1  0  0  0  0
  5 16  1  0  0  0  0
  6 17  1  0  0  0  0
  7 18  1  0  0  0  0
M  END