108883.out.mol
  Mrv0541 03111415023D          

 15 15  0  0  0  0            999 V2000
    0.0000    0.0000    0.0000 C   0  0  0  0  0  0  0  0  0  0  0  0
    1.4001    0.0000    0.0000 C   0  0  0  0  0  0  0  0  0  0  0  0
   -0.6838    1.2217    0.0000 C   0  0  0  0  0  0  0  0  0  0  0  0
   -0.7483   -1.2779    0.0139 C   0  0  0  0  0  0  0  0  0  0  0  0
    2.1040    1.2028    0.0020 C   0  0  0  0  0  0  0  0  0  0  0  0
    0.0221    2.4234    0.0019 C   0  0  0  0  0  0  0  0  0  0  0  0
    1.4168    2.4165    0.0032 C   0  0  0  0  0  0  0  0  0  0  0  0
    1.9450   -0.9556   -0.0023 H   0  0  0  0  0  0  0  0  0  0  0  0
   -1.7838    1.2307   -0.0023 H   0  0  0  0  0  0  0  0  0  0  0  0
   -0.9170   -1.6092    1.0698 H   0  0  0  0  0  0  0  0  0  0  0  0
   -1.7447   -1.1647   -0.4799 H   0  0  0  0  0  0  0  0  0  0  0  0
   -0.1796   -2.0805   -0.5171 H   0  0  0  0  0  0  0  0  0  0  0  0
    3.2038    1.1938    0.0024 H   0  0  0  0  0  0  0  0  0  0  0  0
   -0.5229    3.3787    0.0015 H   0  0  0  0  0  0  0  0  0  0  0  0
    1.9728    3.3649    0.0043 H   0  0  0  0  0  0  0  0  0  0  0  0
  1  2  2  0  0  0  0
  1  3  1  0  0  0  0
  1  4  1  0  0  0  0
  2  5  1  0  0  0  0
  2  8  1  0  0  0  0
  3  6  2  0  0  0  0
  3  9  1  0  0  0  0
  4 10  1  0  0  0  0
  4 11  1  0  0  0  0
  4 12  1  0  0  0  0
  5  7  2  0  0  0  0
  5 13  1  0  0  0  0
  6  7  1  0  0  0  0
  6 14  1  0  0  0  0
  7 15  1  0  0  0  0
M  END