78591.out.mol
  Mrv0541 03111415023D          

 24 24  0  0  0  0            999 V2000
    0.0000    0.0000    0.0000 C   0  0  1  0  0  0  0  0  0  0  0  0
    1.5300    0.0000    0.0000 C   0  0  1  0  0  0  0  0  0  0  0  0
   -0.5245    1.4335    0.0000 C   0  0  1  0  0  0  0  0  0  0  0  0
   -0.4926   -0.7046   -1.2573 C   0  0  0  0  0  0  0  0  0  0  0  0
   -0.5226   -0.7444    1.2203 C   0  0  0  0  0  0  0  0  0  0  0  0
    2.1239    0.9339    0.9962 C   0  0  0  0  0  0  0  0  0  0  0  0
    0.0580    2.2751    1.1017 C   0  0  0  0  0  0  0  0  0  0  0  0
    1.4443    1.9822    1.4908 C   0  0  0  0  0  0  0  0  0  0  0  0
    3.5218    0.6416    1.3916 C   0  0  0  0  0  0  0  0  0  0  0  0
   -0.5920    3.1866    1.6297 O   0  0  0  0  0  0  0  0  0  0  0  0
    1.8960   -1.0437    0.1937 H   0  0  0  0  0  0  0  0  0  0  0  0
    1.8986    0.2990   -1.0202 H   0  0  0  0  0  0  0  0  0  0  0  0
   -0.2621    1.9274   -0.9747 H   0  0  0  0  0  0  0  0  0  0  0  0
   -1.6430    1.4254    0.0855 H   0  0  0  0  0  0  0  0  0  0  0  0
   -0.1085   -1.7523   -1.2857 H   0  0  0  0  0  0  0  0  0  0  0  0
   -1.6085   -0.7326   -1.2695 H   0  0  0  0  0  0  0  0  0  0  0  0
   -0.1400   -0.1701   -2.1717 H   0  0  0  0  0  0  0  0  0  0  0  0
   -0.1640   -0.2508    2.1555 H   0  0  0  0  0  0  0  0  0  0  0  0
   -1.6391   -0.7464    1.2227 H   0  0  0  0  0  0  0  0  0  0  0  0
   -0.1648   -1.8017    1.2120 H   0  0  0  0  0  0  0  0  0  0  0  0
    1.8913    2.6747    2.2220 H   0  0  0  0  0  0  0  0  0  0  0  0
    4.1619    0.5222    0.4819 H   0  0  0  0  0  0  0  0  0  0  0  0
    3.9499    1.4575    2.0238 H   0  0  0  0  0  0  0  0  0  0  0  0
    3.5600   -0.3139    1.9735 H   0  0  0  0  0  0  0  0  0  0  0  0
  1  2  1  0  0  0  0
  1  3  1  0  0  0  0
  1  4  1  0  0  0  0
  1  5  1  0  0  0  0
  2  6  1  0  0  0  0
  2 11  1  0  0  0  0
  2 12  1  0  0  0  0
  3  7  1  0  0  0  0
  3 13  1  0  0  0  0
  3 14  1  0  0  0  0
  4 15  1  0  0  0  0
  4 16  1  0  0  0  0
  4 17  1  0  0  0  0
  5 18  1  0  0  0  0
  5 19  1  0  0  0  0
  5 20  1  0  0  0  0
  6  8  2  0  0  0  0
  6  9  1  0  0  0  0
  7  8  1  0  0  0  0
  7 10  2  0  0  0  0
  8 21  1  0  0  0  0
  9 22  1  0  0  0  0
  9 23  1  0  0  0  0
  9 24  1  0  0  0  0
M  END