59063.out.mol
  Mrv0541 03111415023D          

 32 32  0  0  0  0            999 V2000
    0.0000    0.0000    0.0000 C   0  0  0  0  0  0  0  0  0  0  0  0
    1.4116    0.0000    0.0000 C   0  0  0  0  0  0  0  0  0  0  0  0
   -0.6663    1.2346    0.0000 C   0  0  0  0  0  0  0  0  0  0  0  0
   -0.8207   -1.2120   -0.0005 C   0  0  0  0  0  0  0  0  0  0  0  0
    2.1314    1.2051    0.0005 C   0  0  0  0  0  0  0  0  0  0  0  0
    2.0115   -1.2327   -0.0006 O   0  0  0  0  0  0  0  0  0  0  0  0
    0.0268    2.4312    0.0005 C   0  0  0  0  0  0  0  0  0  0  0  0
   -0.1300   -2.3934    0.0023 O   0  0  0  0  0  0  0  0  0  0  0  0
   -2.0575   -1.2731   -0.0032 O   0  0  0  0  0  0  0  0  0  0  0  0
    1.4485    2.4347    0.0005 C   0  0  0  0  0  0  0  0  0  0  0  0
    3.4497   -1.2520   -0.0011 C   0  0  1  0  0  0  0  0  0  0  0  0
   -0.9185   -3.5844    0.0013 C   0  0  0  0  0  0  0  0  0  0  0  0
    2.1024    3.6724    0.0016 N   0  0  0  0  0  0  0  0  0  0  0  0
    3.8374   -2.7124   -0.0023 C   0  0  0  0  0  0  0  0  0  0  0  0
    3.4727    3.9207    0.0007 C   0  0  0  0  0  0  0  0  0  0  0  0
    3.8761    5.3779    0.0017 C   0  0  0  0  0  0  0  0  0  0  0  0
    4.3274    3.0182   -0.0006 O   0  0  0  0  0  0  0  0  0  0  0  0
   -1.7708    1.2337   -0.0004 H   0  0  0  0  0  0  0  0  0  0  0  0
    3.2327    1.1862    0.0001 H   0  0  0  0  0  0  0  0  0  0  0  0
   -0.5356    3.3765    0.0009 H   0  0  0  0  0  0  0  0  0  0  0  0
    3.8280   -0.7296   -0.9187 H   0  0  0  0  0  0  0  0  0  0  0  0
    3.8286   -0.7309    0.9170 H   0  0  0  0  0  0  0  0  0  0  0  0
   -1.5553   -3.6213   -0.9150 H   0  0  0  0  0  0  0  0  0  0  0  0
   -0.1564   -4.4019    0.0045 H   0  0  0  0  0  0  0  0  0  0  0  0
   -1.5608   -3.6192    0.9137 H   0  0  0  0  0  0  0  0  0  0  0  0
    1.5046    4.4699    0.0019 H   0  0  0  0  0  0  0  0  0  0  0  0
    4.9504   -2.7923   -0.0023 H   0  0  0  0  0  0  0  0  0  0  0  0
    3.4305   -3.2251    0.9017 H   0  0  0  0  0  0  0  0  0  0  0  0
    3.4310   -3.2236   -0.9076 H   0  0  0  0  0  0  0  0  0  0  0  0
    3.4851    5.8948   -0.9077 H   0  0  0  0  0  0  0  0  0  0  0  0
    3.4875    5.8928    0.9131 H   0  0  0  0  0  0  0  0  0  0  0  0
    4.9922    5.4364    0.0004 H   0  0  0  0  0  0  0  0  0  0  0  0
  1  2  2  0  0  0  0
  1  3  1  0  0  0  0
  1  4  1  0  0  0  0
  2  5  1  0  0  0  0
  2  6  1  0  0  0  0
  3  7  2  0  0  0  0
  3 18  1  0  0  0  0
  4  8  1  0  0  0  0
  4  9  2  0  0  0  0
  5 10  2  0  0  0  0
  5 19  1  0  0  0  0
  6 11  1  0  0  0  0
  7 10  1  0  0  0  0
  7 20  1  0  0  0  0
  8 12  1  0  0  0  0
 10 13  1  0  0  0  0
 11 14  1  0  0  0  0
 11 21  1  0  0  0  0
 11 22  1  0  0  0  0
 12 23  1  0  0  0  0
 12 24  1  0  0  0  0
 12 25  1  0  0  0  0
 13 15  1  0  0  0  0
 13 26  1  0  0  0  0
 14 27  1  0  0  0  0
 14 28  1  0  0  0  0
 14 29  1  0  0  0  0
 15 16  1  0  0  0  0
 15 17  2  0  0  0  0
 16 30  1  0  0  0  0
 16 31  1  0  0  0  0
 16 32  1  0  0  0  0
M  END