107119.out.mol
  Mrv0541 03111415023D          

 11 10  0  0  0  0            999 V2000
    0.0000    0.0000    0.0000 C   0  0  0  0  0  0  0  0  0  0  0  0
    1.4969    0.0000    0.0000 C   0  0  1  0  0  0  0  0  0  0  0  0
   -0.7229    1.1166    0.0000 C   0  0  0  0  0  0  0  0  0  0  0  0
    2.0742   -1.0149    0.8524 N   0  0  1  0  0  0  0  0  0  0  0  0
   -0.4747   -0.9950   -0.0306 H   0  0  0  0  0  0  0  0  0  0  0  0
    1.8428   -0.2173   -1.0545 H   0  0  0  0  0  0  0  0  0  0  0  0
    1.8666    1.0390    0.2572 H   0  0  0  0  0  0  0  0  0  0  0  0
   -0.2758    2.1190    0.0329 H   0  0  0  0  0  0  0  0  0  0  0  0
   -1.8199    1.1017   -0.0380 H   0  0  0  0  0  0  0  0  0  0  0  0
    3.0634   -0.8834    0.9224 H   0  0  0  0  0  0  0  0  0  0  0  0
    1.6728   -0.9883    1.7681 H   0  0  0  0  0  0  0  0  0  0  0  0
  1  2  1  0  0  0  0
  1  3  2  0  0  0  0
  1  5  1  0  0  0  0
  2  4  1  0  0  0  0
  2  6  1  0  0  0  0
  2  7  1  0  0  0  0
  3  8  1  0  0  0  0
  3  9  1  0  0  0  0
  4 10  1  0  0  0  0
  4 11  1  0  0  0  0
M  END