79094.out.mol
  Mrv0541 03111415023D          

 11 10  0  0  0  0            999 V2000
    0.0000    0.0000    0.0000 C   0  0  0  0  0  0  0  0  0  0  0  0
    1.4943    0.0000    0.0000 C   0  0  1  0  0  0  0  0  0  0  0  0
   -0.5440    1.2523    0.0000 O   0  0  0  0  0  0  0  0  0  0  0  0
   -0.7951   -0.9434   -0.0004 O   0  0  0  0  0  0  0  0  0  0  0  0
    2.0512   -1.3994    0.0006 C   0  0  0  0  0  0  0  0  0  0  0  0
    1.8433    0.5657   -0.9054 H   0  0  0  0  0  0  0  0  0  0  0  0
    1.8433    0.5662    0.9051 H   0  0  0  0  0  0  0  0  0  0  0  0
   -1.5129    1.1871    0.0004 H   0  0  0  0  0  0  0  0  0  0  0  0
    1.7074   -1.9591    0.9042 H   0  0  0  0  0  0  0  0  0  0  0  0
    1.7083   -1.9594   -0.9030 H   0  0  0  0  0  0  0  0  0  0  0  0
    3.1670   -1.3624    0.0011 H   0  0  0  0  0  0  0  0  0  0  0  0
  1  2  1  0  0  0  0
  1  3  1  0  0  0  0
  1  4  2  0  0  0  0
  2  5  1  0  0  0  0
  2  6  1  0  0  0  0
  2  7  1  0  0  0  0
  3  8  1  0  0  0  0
  5  9  1  0  0  0  0
  5 10  1  0  0  0  0
  5 11  1  0  0  0  0
M  END