111706.out.mol
  Mrv0541 03111415023D          

 24 23  0  0  0  0            999 V2000
    0.0000    0.0000    0.0000 C   0  0  1  0  0  0  0  0  0  0  0  0
    1.5138    0.0000    0.0000 C   0  0  1  0  0  0  0  0  0  0  0  0
   -0.5490    1.4105    0.0000 C   0  0  1  0  0  0  0  0  0  0  0  0
    2.0583   -1.4109    0.0006 C   0  0  1  0  0  0  0  0  0  0  0  0
   -2.0630    1.4120    0.0006 C   0  0  1  0  0  0  0  0  0  0  0  0
    3.5771   -1.3972    0.0000 C   0  0  1  0  0  0  0  0  0  0  0  0
   -2.6145    2.8142    0.0000 C   0  0  0  0  0  0  0  0  0  0  0  0
    4.0061   -2.7501    0.0012 O   0  0  0  0  0  0  0  0  0  0  0  0
   -0.3757   -0.5503   -0.9027 H   0  0  0  0  0  0  0  0  0  0  0  0
   -0.3758   -0.5504    0.9026 H   0  0  0  0  0  0  0  0  0  0  0  0
    1.8894    0.5502   -0.9029 H   0  0  0  0  0  0  0  0  0  0  0  0
    1.8894    0.5503    0.9029 H   0  0  0  0  0  0  0  0  0  0  0  0
   -0.1731    1.9609    0.9024 H   0  0  0  0  0  0  0  0  0  0  0  0
   -0.1734    1.9608   -0.9027 H   0  0  0  0  0  0  0  0  0  0  0  0
    1.6943   -1.9678    0.9029 H   0  0  0  0  0  0  0  0  0  0  0  0
    1.6942   -1.9685   -0.9012 H   0  0  0  0  0  0  0  0  0  0  0  0
   -2.4373    0.8596   -0.9015 H   0  0  0  0  0  0  0  0  0  0  0  0
   -2.4365    0.8601    0.9034 H   0  0  0  0  0  0  0  0  0  0  0  0
    3.9677   -0.8734   -0.9137 H   0  0  0  0  0  0  0  0  0  0  0  0
    3.9684   -0.8712    0.9122 H   0  0  0  0  0  0  0  0  0  0  0  0
   -2.2723    3.3732    0.9044 H   0  0  0  0  0  0  0  0  0  0  0  0
   -2.2733    3.3720   -0.9054 H   0  0  0  0  0  0  0  0  0  0  0  0
   -3.7310    2.7923    0.0010 H   0  0  0  0  0  0  0  0  0  0  0  0
    4.9696   -2.7327    0.0004 H   0  0  0  0  0  0  0  0  0  0  0  0
  1  2  1  0  0  0  0
  1  3  1  0  0  0  0
  1  9  1  0  0  0  0
  1 10  1  0  0  0  0
  2  4  1  0  0  0  0
  2 11  1  0  0  0  0
  2 12  1  0  0  0  0
  3  5  1  0  0  0  0
  3 13  1  0  0  0  0
  3 14  1  0  0  0  0
  4  6  1  0  0  0  0
  4 15  1  0  0  0  0
  4 16  1  0  0  0  0
  5  7  1  0  0  0  0
  5 17  1  0  0  0  0
  5 18  1  0  0  0  0
  6  8  1  0  0  0  0
  6 19  1  0  0  0  0
  6 20  1  0  0  0  0
  7 21  1  0  0  0  0
  7 22  1  0  0  0  0
  7 23  1  0  0  0  0
  8 24  1  0  0  0  0
M  END