78875.out.mol
  Mrv0541 03111415023D          

 11 10  0  0  0  0            999 V2000
    0.0000    0.0000    0.0000 C   0  0  1  0  0  0  0  0  0  0  0  0
    1.5159    0.0000    0.0000 C   0  0  1  0  0  0  0  0  0  0  0  0
   -0.5764    1.3942    0.0000 C   0  0  0  0  0  0  0  0  0  0  0  0
   -0.5553   -0.8870   -1.4323 Cl  0  0  0  0  0  0  0  0  0  0  0  0
    2.1546    0.5195    1.5498 Cl  0  0  0  0  0  0  0  0  0  0  0  0
   -0.3925   -0.5864    0.8719 H   0  0  0  0  0  0  0  0  0  0  0  0
    1.9190   -1.0268   -0.1778 H   0  0  0  0  0  0  0  0  0  0  0  0
    1.9183    0.7029   -0.7687 H   0  0  0  0  0  0  0  0  0  0  0  0
   -0.2330    1.9701   -0.8933 H   0  0  0  0  0  0  0  0  0  0  0  0
   -1.6927    1.3561   -0.0101 H   0  0  0  0  0  0  0  0  0  0  0  0
   -0.2463    1.9353    0.9211 H   0  0  0  0  0  0  0  0  0  0  0  0
  1  2  1  0  0  0  0
  1  3  1  0  0  0  0
  1  4  1  0  0  0  0
  1  6  1  1  0  0  0
  2  5  1  0  0  0  0
  2  7  1  0  0  0  0
  2  8  1  0  0  0  0
  3  9  1  0  0  0  0
  3 10  1  0  0  0  0
  3 11  1  0  0  0  0
M  END