2741062.out.mol
  Mrv0541 03111415023D          

 24 24  0  0  0  0            999 V2000
    0.0000    0.0000    0.0000 N   0  0  0  0  0  0  0  0  0  0  0  0
    1.4097    0.0000    0.0000 C   0  0  0  0  0  0  0  0  0  0  0  0
    2.1432    1.2058    0.0000 C   0  0  0  0  0  0  0  0  0  0  0  0
    3.5347    1.1772   -0.0391 C   0  0  0  0  0  0  0  0  0  0  0  0
    4.2193   -0.0354   -0.0927 C   0  0  0  0  0  0  0  0  0  0  0  0
    3.5029   -1.2315   -0.1105 C   0  0  0  0  0  0  0  0  0  0  0  0
    2.1125   -1.2243   -0.0620 C   0  0  0  0  0  0  0  0  0  0  0  0
   -0.8231    0.6046    0.9492 C   0  0  0  0  0  0  0  0  0  0  0  0
   -2.4313    0.3784    0.7945 S   0  0  0  0  0  0  0  0  0  0  0  0
   -0.2555    1.3278    1.9745 N   0  0  0  0  0  0  0  0  0  0  0  0
   -1.0488    2.1345    2.8690 C   0  0  1  0  0  0  0  0  0  0  0  0
   -0.7391    3.6218    2.8042 C   0  0  0  0  0  0  0  0  0  0  0  0
   -0.4553   -0.6858   -0.5697 H   0  0  0  0  0  0  0  0  0  0  0  0
    1.6237    2.1766    0.0038 H   0  0  0  0  0  0  0  0  0  0  0  0
    4.0949    2.1248   -0.0382 H   0  0  0  0  0  0  0  0  0  0  0  0
    5.3184   -0.0490   -0.1260 H   0  0  0  0  0  0  0  0  0  0  0  0
    4.0383   -2.1920   -0.1604 H   0  0  0  0  0  0  0  0  0  0  0  0
    1.5644   -2.1792   -0.0766 H   0  0  0  0  0  0  0  0  0  0  0  0
    0.7292    1.4763    2.0034 H   0  0  0  0  0  0  0  0  0  0  0  0
   -2.1458    1.9666    2.6403 H   0  0  0  0  0  0  0  0  0  0  0  0
   -0.8482    1.7623    3.9161 H   0  0  0  0  0  0  0  0  0  0  0  0
    0.3336    3.8279    3.0354 H   0  0  0  0  0  0  0  0  0  0  0  0
   -0.9723    4.0395    1.7956 H   0  0  0  0  0  0  0  0  0  0  0  0
   -1.3714    4.1473    3.5602 H   0  0  0  0  0  0  0  0  0  0  0  0
  1  2  1  0  0  0  0
  1  8  1  0  0  0  0
  1 13  1  0  0  0  0
  2  3  2  0  0  0  0
  2  7  1  0  0  0  0
  3  4  1  0  0  0  0
  3 14  1  0  0  0  0
  4  5  2  0  0  0  0
  4 15  1  0  0  0  0
  5  6  1  0  0  0  0
  5 16  1  0  0  0  0
  6  7  2  0  0  0  0
  6 17  1  0  0  0  0
  7 18  1  0  0  0  0
  8  9  2  0  0  0  0
  8 10  1  0  0  0  0
 10 11  1  0  0  0  0
 10 19  1  0  0  0  0
 11 12  1  0  0  0  0
 11 20  1  0  0  0  0
 11 21  1  0  0  0  0
 12 22  1  0  0  0  0
 12 23  1  0  0  0  0
 12 24  1  0  0  0  0
M  END