103855.out.mol
  Mrv0541 03111415023D          

 18 18  0  0  0  0            999 V2000
    0.0000    0.0000    0.0000 C   0  0  0  0  0  0  0  0  0  0  0  0
    1.4111    0.0000    0.0000 C   0  0  0  0  0  0  0  0  0  0  0  0
   -0.6817    1.2381    0.0000 C   0  0  0  0  0  0  0  0  0  0  0  0
   -0.7371   -1.1996   -0.0520 N   0  0  0  0  0  0  0  0  0  0  0  0
    2.1092    1.2046    0.0239 C   0  0  0  0  0  0  0  0  0  0  0  0
    0.0344    2.4306    0.0136 C   0  0  0  0  0  0  0  0  0  0  0  0
   -0.6005   -2.2860    0.8035 C   0  0  0  0  0  0  0  0  0  0  0  0
    1.4287    2.4206    0.0328 C   0  0  0  0  0  0  0  0  0  0  0  0
    0.3667   -2.2822    1.7763 N   0  0  0  0  0  0  0  0  0  0  0  0
   -1.5986   -3.5603    0.6188 S   0  0  0  0  0  0  0  0  0  0  0  0
    1.9722   -0.9462   -0.0477 H   0  0  0  0  0  0  0  0  0  0  0  0
   -1.7823    1.2663   -0.0152 H   0  0  0  0  0  0  0  0  0  0  0  0
   -1.5473   -1.2191   -0.6380 H   0  0  0  0  0  0  0  0  0  0  0  0
    3.2099    1.1910    0.0252 H   0  0  0  0  0  0  0  0  0  0  0  0
   -0.5083    3.3884    0.0119 H   0  0  0  0  0  0  0  0  0  0  0  0
    1.9879    3.3674    0.0491 H   0  0  0  0  0  0  0  0  0  0  0  0
    0.4209   -3.0816    2.3623 H   0  0  0  0  0  0  0  0  0  0  0  0
    0.9475   -1.5013    1.9597 H   0  0  0  0  0  0  0  0  0  0  0  0
  1  2  2  0  0  0  0
  1  3  1  0  0  0  0
  1  4  1  0  0  0  0
  2  5  1  0  0  0  0
  2 11  1  0  0  0  0
  3  6  2  0  0  0  0
  3 12  1  0  0  0  0
  4  7  1  0  0  0  0
  4 13  1  0  0  0  0
  5  8  2  0  0  0  0
  5 14  1  0  0  0  0
  6  8  1  0  0  0  0
  6 15  1  0  0  0  0
  7  9  1  0  0  0  0
  7 10  2  0  0  0  0
  8 16  1  0  0  0  0
  9 17  1  0  0  0  0
  9 18  1  0  0  0  0
M  END