79016.out.mol
  Mrv0541 03111415023D          

  6  5  0  0  0  0            999 V2000
    0.0000    0.0000    0.0000 C   0  0  0  0  0  0  0  0  0  0  0  0
    1.3424    0.0000    0.0000 C   0  0  0  0  0  0  0  0  0  0  0  0
   -0.9417    1.4035    0.0000 Cl  0  0  0  0  0  0  0  0  0  0  0  0
   -0.8542   -1.4671   -0.0007 Cl  0  0  0  0  0  0  0  0  0  0  0  0
    2.2835    1.3937    0.0006 Cl  0  0  0  0  0  0  0  0  0  0  0  0
    1.9333   -0.9281    0.0004 H   0  0  0  0  0  0  0  0  0  0  0  0
  1  2  2  0  0  0  0
  1  3  1  0  0  0  0
  1  4  1  0  0  0  0
  2  5  1  0  0  0  0
  2  6  1  0  0  0  0
M  END