88891.out.mol
  Mrv0541 03111415023D          

 19 19  0  0  0  0            999 V2000
    0.0000    0.0000    0.0000 C   0  0  0  0  0  0  0  0  0  0  0  0
    1.4221    0.0000    0.0000 C   0  0  0  0  0  0  0  0  0  0  0  0
   -0.7208    1.2052    0.0000 C   0  0  0  0  0  0  0  0  0  0  0  0
   -0.7793   -1.2619   -0.0006 N   0  3  0  0  0  0  0  0  0  0  0  0
    2.0900    1.2655    0.0006 C   0  0  0  0  0  0  0  0  0  0  0  0
    2.2230   -1.0801    0.0005 O   0  0  0  0  0  0  0  0  0  0  0  0
   -0.0331    2.4219    0.0005 C   0  0  0  0  0  0  0  0  0  0  0  0
   -0.1859   -2.3111   -0.0003 O   0  5  0  0  0  0  0  0  0  0  0  0
   -1.9748   -1.2031   -0.0010 O   0  0  0  0  0  0  0  0  0  0  0  0
    1.3711    2.4612    0.0016 C   0  0  0  0  0  0  0  0  0  0  0  0
    3.5795    1.3319    0.0000 N   0  3  0  0  0  0  0  0  0  0  0  0
   -0.8000    3.6981    0.0011 N   0  3  0  0  0  0  0  0  0  0  0  0
    4.0905    2.4194    0.0078 O   0  5  0  0  0  0  0  0  0  0  0  0
    4.2082    0.3146   -0.0084 O   0  0  0  0  0  0  0  0  0  0  0  0
   -1.9983    3.6440    0.0006 O   0  5  0  0  0  0  0  0  0  0  0  0
   -0.1909    4.7310    0.0021 O   0  0  0  0  0  0  0  0  0  0  0  0
   -1.8333    1.1908   -0.0004 H   0  0  0  0  0  0  0  0  0  0  0  0
    1.7326   -1.9252    0.0000 H   0  0  0  0  0  0  0  0  0  0  0  0
    1.9055    3.4373    0.0025 H   0  0  0  0  0  0  0  0  0  0  0  0
  1  2  2  0  0  0  0
  1  3  1  0  0  0  0
  1  4  1  0  0  0  0
  2  5  1  0  0  0  0
  2  6  1  0  0  0  0
  3  7  2  0  0  0  0
  3 17  1  0  0  0  0
  4  8  1  0  0  0  0
  4  9  2  0  0  0  0
  5 10  2  0  0  0  0
  5 11  1  0  0  0  0
  6 18  1  0  0  0  0
  7 10  1  0  0  0  0
  7 12  1  0  0  0  0
 10 19  1  0  0  0  0
 11 13  1  0  0  0  0
 11 14  2  0  0  0  0
 12 15  1  0  0  0  0
 12 16  2  0  0  0  0
M  CHG  6   4   1   8  -1  11   1  12   1  13  -1  15  -1
M  END