91225.out.mol
  Mrv0541 03111415023D          

 17 18  0  0  0  0            999 V2000
    0.0000    0.0000    0.0000 C   0  0  0  0  0  0  0  0  0  0  0  0
    1.4295    0.0000    0.0000 C   0  0  0  0  0  0  0  0  0  0  0  0
   -0.7028    1.2314    0.0000 C   0  0  0  0  0  0  0  0  0  0  0  0
   -0.6734   -1.2560    0.0006 C   0  0  0  0  0  0  0  0  0  0  0  0
    2.1101    1.2601   -0.0006 C   0  0  0  0  0  0  0  0  0  0  0  0
    2.1581   -1.1767    0.0005 N   0  0  0  0  0  0  0  0  0  0  0  0
   -0.0191    2.4223   -0.0005 C   0  0  0  0  0  0  0  0  0  0  0  0
    0.0611   -2.4138    0.0005 C   0  0  0  0  0  0  0  0  0  0  0  0
    1.3958    2.4320   -0.0006 C   0  0  0  0  0  0  0  0  0  0  0  0
    1.4895   -2.3153    0.0005 C   0  0  0  0  0  0  0  0  0  0  0  0
   -1.8032    1.2111    0.0004 H   0  0  0  0  0  0  0  0  0  0  0  0
   -1.7735   -1.2714    0.0001 H   0  0  0  0  0  0  0  0  0  0  0  0
    3.2115    1.2706   -0.0010 H   0  0  0  0  0  0  0  0  0  0  0  0
   -0.5604    3.3800   -0.0010 H   0  0  0  0  0  0  0  0  0  0  0  0
   -0.4111   -3.4045    0.0005 H   0  0  0  0  0  0  0  0  0  0  0  0
    1.9201    3.3999   -0.0014 H   0  0  0  0  0  0  0  0  0  0  0  0
    2.0985   -3.2385    0.0014 H   0  0  0  0  0  0  0  0  0  0  0  0
  1  2  2  0  0  0  0
  1  3  1  0  0  0  0
  1  4  1  0  0  0  0
  2  5  1  0  0  0  0
  2  6  1  0  0  0  0
  3  7  2  0  0  0  0
  3 11  1  0  0  0  0
  4  8  2  0  0  0  0
  4 12  1  0  0  0  0
  5  9  2  0  0  0  0
  5 13  1  0  0  0  0
  6 10  2  0  0  0  0
  7  9  1  0  0  0  0
  7 14  1  0  0  0  0
  8 10  1  0  0  0  0
  8 15  1  0  0  0  0
  9 16  1  0  0  0  0
 10 17  1  0  0  0  0
M  END