106423.out.mol
  Mrv0541 03111415023D          

 18 18  0  0  0  0            999 V2000
    0.0000    0.0000    0.0000 C   0  0  0  0  0  0  0  0  0  0  0  0
    1.3998    0.0000    0.0000 C   0  0  0  0  0  0  0  0  0  0  0  0
   -0.6796    1.2236    0.0000 C   0  0  0  0  0  0  0  0  0  0  0  0
   -0.7502   -1.2764    0.0149 C   0  0  0  0  0  0  0  0  0  0  0  0
    2.1059    1.1999    0.0013 C   0  0  0  0  0  0  0  0  0  0  0  0
    0.0265    2.4236    0.0013 C   0  0  0  0  0  0  0  0  0  0  0  0
    1.4262    2.4236    0.0013 C   0  0  0  0  0  0  0  0  0  0  0  0
    2.1777    3.6992   -0.0136 C   0  0  0  0  0  0  0  0  0  0  0  0
    1.9445   -0.9558   -0.0004 H   0  0  0  0  0  0  0  0  0  0  0  0
   -1.7797    1.2360   -0.0004 H   0  0  0  0  0  0  0  0  0  0  0  0
   -0.9198   -1.6070    1.0709 H   0  0  0  0  0  0  0  0  0  0  0  0
   -1.7463   -1.1620   -0.4792 H   0  0  0  0  0  0  0  0  0  0  0  0
   -0.1827   -2.0803   -0.5154 H   0  0  0  0  0  0  0  0  0  0  0  0
    3.2060    1.1878    0.0017 H   0  0  0  0  0  0  0  0  0  0  0  0
   -0.5185    3.3793    0.0017 H   0  0  0  0  0  0  0  0  0  0  0  0
    2.3827    4.0090   -1.0696 H   0  0  0  0  0  0  0  0  0  0  0  0
    1.5946    4.5140    0.4821 H   0  0  0  0  0  0  0  0  0  0  0  0
    3.1568    3.5931    0.5152 H   0  0  0  0  0  0  0  0  0  0  0  0
  1  2  2  0  0  0  0
  1  3  1  0  0  0  0
  1  4  1  0  0  0  0
  2  5  1  0  0  0  0
  2  9  1  0  0  0  0
  3  6  2  0  0  0  0
  3 10  1  0  0  0  0
  4 11  1  0  0  0  0
  4 12  1  0  0  0  0
  4 13  1  0  0  0  0
  5  7  2  0  0  0  0
  5 14  1  0  0  0  0
  6  7  1  0  0  0  0
  6 15  1  0  0  0  0
  7  8  1  0  0  0  0
  8 16  1  0  0  0  0
  8 17  1  0  0  0  0
  8 18  1  0  0  0  0
M  END