80568.out.mol
  Mrv0541 03111415023D          

 26 27  0  0  0  0            999 V2000
    0.0000    0.0000    0.0000 C   0  0  1  0  0  0  0  0  0  0  0  0
    1.5770    0.0000    0.0000 C   0  0  1  0  0  0  0  0  0  0  0  0
    0.0570    1.5621    0.0000 C   0  0  1  0  0  0  0  0  0  0  0  0
   -0.4803   -0.3808   -1.3691 C   0  0  0  0  0  0  0  0  0  0  0  0
    1.4492    1.4111   -0.6787 C   0  0  2  0  0  0  0  0  0  0  0  0
    2.1361    0.0933    1.4008 C   0  0  0  0  0  0  0  0  0  0  0  0
    2.3022   -1.0795   -0.7515 C   0  0  0  0  0  0  0  0  0  0  0  0
    0.1038    0.2497   -2.4099 C   0  0  0  0  0  0  0  0  0  0  0  0
   -1.5547   -1.3828   -1.4850 C   0  0  0  0  0  0  0  0  0  0  0  0
    1.2041    1.2381   -2.1737 C   0  0  1  0  0  0  0  0  0  0  0  0
   -0.5029   -0.5069    0.8402 H   0  0  0  0  0  0  0  0  0  0  0  0
   -0.7189    2.0675   -0.6084 H   0  0  0  0  0  0  0  0  0  0  0  0
    0.0959    2.0083    1.0146 H   0  0  0  0  0  0  0  0  0  0  0  0
    2.2280    2.1529   -0.4309 H   0  0  0  0  0  0  0  0  0  0  0  0
    1.9540   -0.8627    1.9495 H   0  0  0  0  0  0  0  0  0  0  0  0
    3.2375    0.2761    1.3603 H   0  0  0  0  0  0  0  0  0  0  0  0
    1.6635    0.9241    1.9770 H   0  0  0  0  0  0  0  0  0  0  0  0
    1.8250   -1.3070   -1.7345 H   0  0  0  0  0  0  0  0  0  0  0  0
    3.3574   -0.7619   -0.9397 H   0  0  0  0  0  0  0  0  0  0  0  0
    2.3183   -2.0214   -0.1493 H   0  0  0  0  0  0  0  0  0  0  0  0
   -0.1792    0.0653   -3.4538 H   0  0  0  0  0  0  0  0  0  0  0  0
   -2.4650   -1.0381   -0.9327 H   0  0  0  0  0  0  0  0  0  0  0  0
   -1.8345   -1.5616   -2.5522 H   0  0  0  0  0  0  0  0  0  0  0  0
   -1.2243   -2.3538   -1.0372 H   0  0  0  0  0  0  0  0  0  0  0  0
    0.9257    2.2258   -2.6265 H   0  0  0  0  0  0  0  0  0  0  0  0
    2.1415    0.8824   -2.6770 H   0  0  0  0  0  0  0  0  0  0  0  0
  1  2  1  0  0  0  0
  1  3  1  0  0  0  0
  1  4  1  0  0  0  0
  1 11  1  1  0  0  0
  2  5  1  0  0  0  0
  2  6  1  0  0  0  0
  2  7  1  0  0  0  0
  3  5  1  0  0  0  0
  3 12  1  0  0  0  0
  3 13  1  0  0  0  0
  4  8  2  0  0  0  0
  4  9  1  0  0  0  0
  5 10  1  0  0  0  0
  5 14  1  1  0  0  0
  6 15  1  0  0  0  0
  6 16  1  0  0  0  0
  6 17  1  0  0  0  0
  7 18  1  0  0  0  0
  7 19  1  0  0  0  0
  7 20  1  0  0  0  0
  8 10  1  0  0  0  0
  8 21  1  0  0  0  0
  9 22  1  0  0  0  0
  9 23  1  0  0  0  0
  9 24  1  0  0  0  0
 10 25  1  0  0  0  0
 10 26  1  0  0  0  0
M  END