102089.out.mol
  Mrv0541 03111415023D          

 28 29  0  0  0  0            999 V2000
    0.0000    0.0000    0.0000 C   0  0  0  0  0  0  0  0  0  0  0  0
    1.4116    0.0000    0.0000 N   0  0  0  0  0  0  0  0  0  0  0  0
   -0.7737    1.1775    0.0000 C   0  0  0  0  0  0  0  0  0  0  0  0
   -0.6598   -1.2526   -0.0574 C   0  0  0  0  0  0  0  0  0  0  0  0
    2.2279    0.9455    0.5944 C   0  0  0  0  0  0  0  0  0  0  0  0
   -2.1638    1.0947   -0.0517 C   0  0  0  0  0  0  0  0  0  0  0  0
   -2.0471   -1.3095   -0.1138 C   0  0  0  0  0  0  0  0  0  0  0  0
    3.6067    0.7373    0.5509 N   0  0  0  0  0  0  0  0  0  0  0  0
    1.7287    2.3071    1.3266 S   0  0  0  0  0  0  0  0  0  0  0  0
   -2.8061   -0.1393   -0.1093 C   0  0  0  0  0  0  0  0  0  0  0  0
    4.2781   -0.3876    0.0314 C   0  0  0  0  0  0  0  0  0  0  0  0
    5.2208   -1.0696    0.8335 C   0  0  0  0  0  0  0  0  0  0  0  0
    4.0742   -0.8206   -1.2963 C   0  0  0  0  0  0  0  0  0  0  0  0
    5.9214   -2.1558    0.3191 C   0  0  0  0  0  0  0  0  0  0  0  0
    4.7782   -1.9164   -1.7892 C   0  0  0  0  0  0  0  0  0  0  0  0
    5.6998   -2.5878   -0.9881 C   0  0  0  0  0  0  0  0  0  0  0  0
    1.8196   -0.8614   -0.3074 H   0  0  0  0  0  0  0  0  0  0  0  0
   -0.2860    2.1677    0.0633 H   0  0  0  0  0  0  0  0  0  0  0  0
   -0.0841   -2.1907   -0.0584 H   0  0  0  0  0  0  0  0  0  0  0  0
   -2.7545    2.0236   -0.0453 H   0  0  0  0  0  0  0  0  0  0  0  0
   -2.5467   -2.2889   -0.1585 H   0  0  0  0  0  0  0  0  0  0  0  0
    4.1442    1.3828    1.0958 H   0  0  0  0  0  0  0  0  0  0  0  0
   -3.9034   -0.1929   -0.1494 H   0  0  0  0  0  0  0  0  0  0  0  0
    5.4098   -0.7428    1.8680 H   0  0  0  0  0  0  0  0  0  0  0  0
    3.3790   -0.2835   -1.9607 H   0  0  0  0  0  0  0  0  0  0  0  0
    6.6541   -2.6776    0.9536 H   0  0  0  0  0  0  0  0  0  0  0  0
    4.6085   -2.2452   -2.8260 H   0  0  0  0  0  0  0  0  0  0  0  0
    6.2537   -3.4504   -1.3863 H   0  0  0  0  0  0  0  0  0  0  0  0
  1  2  1  0  0  0  0
  1  3  2  0  0  0  0
  1  4  1  0  0  0  0
  2  5  1  0  0  0  0
  2 17  1  0  0  0  0
  3  6  1  0  0  0  0
  3 18  1  0  0  0  0
  4  7  2  0  0  0  0
  4 19  1  0  0  0  0
  5  8  1  0  0  0  0
  5  9  2  0  0  0  0
  6 10  2  0  0  0  0
  6 20  1  0  0  0  0
  7 10  1  0  0  0  0
  7 21  1  0  0  0  0
  8 11  1  0  0  0  0
  8 22  1  0  0  0  0
 10 23  1  0  0  0  0
 11 12  2  0  0  0  0
 11 13  1  0  0  0  0
 12 14  1  0  0  0  0
 12 24  1  0  0  0  0
 13 15  2  0  0  0  0
 13 25  1  0  0  0  0
 14 16  2  0  0  0  0
 14 26  1  0  0  0  0
 15 16  1  0  0  0  0
 15 27  1  0  0  0  0
 16 28  1  0  0  0  0
M  END