98953.out.mol
  Mrv0541 03111415023D          

 14 14  0  0  0  0            999 V2000
    0.0000    0.0000    0.0000 C   0  0  0  0  0  0  0  0  0  0  0  0
    1.4046    0.0000    0.0000 C   0  0  0  0  0  0  0  0  0  0  0  0
   -0.7228    1.2044    0.0000 C   0  0  0  0  0  0  0  0  0  0  0  0
   -0.7324   -1.2936    0.0006 N   0  3  0  0  0  0  0  0  0  0  0  0
    2.0799    1.2185   -0.0005 C   0  0  0  0  0  0  0  0  0  0  0  0
   -0.0255    2.4104   -0.0005 C   0  0  0  0  0  0  0  0  0  0  0  0
   -0.1041   -2.3185    0.0005 O   0  5  0  0  0  0  0  0  0  0  0  0
   -1.9344   -1.2823    0.0010 O   0  0  0  0  0  0  0  0  0  0  0  0
    1.3698    2.4196   -0.0005 C   0  0  0  0  0  0  0  0  0  0  0  0
    1.9619   -0.9523    0.0004 H   0  0  0  0  0  0  0  0  0  0  0  0
   -1.8260    1.1922    0.0004 H   0  0  0  0  0  0  0  0  0  0  0  0
    3.1806    1.2277   -0.0010 H   0  0  0  0  0  0  0  0  0  0  0  0
   -0.5839    3.3590   -0.0001 H   0  0  0  0  0  0  0  0  0  0  0  0
    1.9122    3.3777   -0.0014 H   0  0  0  0  0  0  0  0  0  0  0  0
  1  2  2  0  0  0  0
  1  3  1  0  0  0  0
  1  4  1  0  0  0  0
  2  5  1  0  0  0  0
  2 10  1  0  0  0  0
  3  6  2  0  0  0  0
  3 11  1  0  0  0  0
  4  7  1  0  0  0  0
  4  8  2  0  0  0  0
  5  9  2  0  0  0  0
  5 12  1  0  0  0  0
  6  9  1  0  0  0  0
  6 13  1  0  0  0  0
  9 14  1  0  0  0  0
M  CHG  2   4   1   7  -1
M  END