83329.out.mol
  Mrv0541 03111415023D          

 22 24  0  0  0  0            999 V2000
    0.0000    0.0000    0.0000 C   0  0  0  0  0  0  0  0  0  0  0  0
    1.4276    0.0000    0.0000 C   0  0  0  0  0  0  0  0  0  0  0  0
   -0.5403    1.3214    0.0000 C   0  0  0  0  0  0  0  0  0  0  0  0
   -0.7795   -1.1609   -0.0005 C   0  0  0  0  0  0  0  0  0  0  0  0
    1.8924    1.4246    0.0006 C   0  0  1  0  0  0  0  0  0  0  0  0
    2.0808   -1.2037    0.0005 C   0  0  0  0  0  0  0  0  0  0  0  0
    0.6024    2.2908   -0.0006 C   0  0  1  0  0  0  0  0  0  0  0  0
   -1.9017    1.4705   -0.0005 C   0  0  0  0  0  0  0  0  0  0  0  0
   -0.0693   -2.3948   -0.0005 C   0  0  0  0  0  0  0  0  0  0  0  0
   -2.1905   -0.9705    0.0001 C   0  0  0  0  0  0  0  0  0  0  0  0
    1.3082   -2.4002    0.0005 C   0  0  0  0  0  0  0  0  0  0  0  0
   -2.7167    0.3025    0.0007 C   0  0  0  0  0  0  0  0  0  0  0  0
    2.5103    1.6414    0.9067 H   0  0  0  0  0  0  0  0  0  0  0  0
    2.5105    1.6423   -0.9051 H   0  0  0  0  0  0  0  0  0  0  0  0
    3.1770   -1.2720    0.0002 H   0  0  0  0  0  0  0  0  0  0  0  0
    0.5692    2.9448   -0.9066 H   0  0  0  0  0  0  0  0  0  0  0  0
    0.5700    2.9453    0.9051 H   0  0  0  0  0  0  0  0  0  0  0  0
   -2.3798    2.4593   -0.0002 H   0  0  0  0  0  0  0  0  0  0  0  0
   -0.6367   -3.3364   -0.0005 H   0  0  0  0  0  0  0  0  0  0  0  0
   -2.8473   -1.8520   -0.0007 H   0  0  0  0  0  0  0  0  0  0  0  0
    1.8489   -3.3593    0.0010 H   0  0  0  0  0  0  0  0  0  0  0  0
   -3.8092    0.4400    0.0008 H   0  0  0  0  0  0  0  0  0  0  0  0
  1  2  2  0  0  0  0
  1  3  1  0  0  0  0
  1  4  1  0  0  0  0
  2  5  1  0  0  0  0
  2  6  1  0  0  0  0
  3  7  1  0  0  0  0
  3  8  2  0  0  0  0
  4  9  2  0  0  0  0
  4 10  1  0  0  0  0
  5  7  1  0  0  0  0
  5 13  1  0  0  0  0
  5 14  1  0  0  0  0
  6 11  2  0  0  0  0
  6 15  1  0  0  0  0
  7 16  1  0  0  0  0
  7 17  1  0  0  0  0
  8 12  1  0  0  0  0
  8 18  1  0  0  0  0
  9 11  1  0  0  0  0
  9 19  1  0  0  0  0
 10 12  2  0  0  0  0
 10 20  1  0  0  0  0
 11 21  1  0  0  0  0
 12 22  1  0  0  0  0
M  END