95158.out.mol
  Mrv0541 03111415023D          

 15 16  0  0  0  0            999 V2000
    0.0000    0.0000    0.0000 C   0  0  0  0  0  0  0  0  0  0  0  0
    1.4235    0.0000    0.0000 C   0  0  0  0  0  0  0  0  0  0  0  0
   -0.5222    1.3446    0.0000 C   0  0  0  0  0  0  0  0  0  0  0  0
   -0.7032   -1.2126   -0.0005 C   0  0  0  0  0  0  0  0  0  0  0  0
    2.0174    1.5826    0.0007 S   0  0  0  0  0  0  0  0  0  0  0  0
    2.1230   -1.2121    0.0005 C   0  0  0  0  0  0  0  0  0  0  0  0
    0.4780    2.2746   -0.0006 C   0  0  0  0  0  0  0  0  0  0  0  0
    0.0055   -2.4027   -0.0005 C   0  0  0  0  0  0  0  0  0  0  0  0
    1.4126   -2.4017    0.0005 C   0  0  0  0  0  0  0  0  0  0  0  0
   -1.5936    1.5561   -0.0004 H   0  0  0  0  0  0  0  0  0  0  0  0
   -1.8024   -1.2068   -0.0001 H   0  0  0  0  0  0  0  0  0  0  0  0
    3.2227   -1.2155    0.0010 H   0  0  0  0  0  0  0  0  0  0  0  0
    0.3444    3.3559   -0.0011 H   0  0  0  0  0  0  0  0  0  0  0  0
   -0.5305   -3.3632   -0.0005 H   0  0  0  0  0  0  0  0  0  0  0  0
    1.9507   -3.3612    0.0005 H   0  0  0  0  0  0  0  0  0  0  0  0
  1  2  2  0  0  0  0
  1  3  1  0  0  0  0
  1  4  1  0  0  0  0
  2  5  1  0  0  0  0
  2  6  1  0  0  0  0
  3  7  2  0  0  0  0
  3 10  1  0  0  0  0
  4  8  2  0  0  0  0
  4 11  1  0  0  0  0
  5  7  1  0  0  0  0
  6  9  2  0  0  0  0
  6 12  1  0  0  0  0
  7 13  1  0  0  0  0
  8  9  1  0  0  0  0
  8 14  1  0  0  0  0
  9 15  1  0  0  0  0
M  END