1014706.out.mol
  Mrv0541 03111415023D          

 29 29  0  0  0  0            999 V2000
    0.0000    0.0000    0.0000 C   0  0  0  0  0  0  0  0  0  0  0  0
    1.3896    0.0000    0.0000 N   0  0  0  0  0  0  0  0  0  0  0  0
   -0.7935    1.1493    0.0000 N   0  0  0  0  0  0  0  0  0  0  0  0
   -0.6204   -1.2375   -0.0006 N   0  0  0  0  0  0  0  0  0  0  0  0
    1.9729    1.2596   -0.0006 C   0  0  0  0  0  0  0  0  0  0  0  0
   -0.0943    2.3195   -0.0006 C   0  0  0  0  0  0  0  0  0  0  0  0
   -2.0522   -1.3838   -0.0001 C   0  0  1  0  0  0  0  0  0  0  0  0
    1.2613    2.4605   -0.0006 N   0  0  0  0  0  0  0  0  0  0  0  0
    3.3575    1.3018    0.0000 N   0  0  0  0  0  0  0  0  0  0  0  0
   -1.0752    3.7428    0.0001 S   0  0  0  0  0  0  0  0  0  0  0  0
   -2.4985   -2.8377   -0.0015 C   0  0  0  0  0  0  0  0  0  0  0  0
    4.0935    2.5376   -0.0011 C   0  0  1  0  0  0  0  0  0  0  0  0
    0.0449    5.0857    0.0000 C   0  0  0  0  0  0  0  0  0  0  0  0
    5.6003    2.3299   -0.0008 C   0  0  0  0  0  0  0  0  0  0  0  0
   -0.0552   -2.0538   -0.0004 H   0  0  0  0  0  0  0  0  0  0  0  0
   -2.4774   -0.8683    0.9105 H   0  0  0  0  0  0  0  0  0  0  0  0
   -2.4783   -0.8652   -0.9083 H   0  0  0  0  0  0  0  0  0  0  0  0
    3.8596    0.4452    0.0003 H   0  0  0  0  0  0  0  0  0  0  0  0
   -2.1312   -3.3775    0.9043 H   0  0  0  0  0  0  0  0  0  0  0  0
   -3.6150   -2.8629   -0.0005 H   0  0  0  0  0  0  0  0  0  0  0  0
   -2.1323   -3.3753   -0.9089 H   0  0  0  0  0  0  0  0  0  0  0  0
    3.8054    3.1408   -0.9113 H   0  0  0  0  0  0  0  0  0  0  0  0
    3.8046    3.1427    0.9078 H   0  0  0  0  0  0  0  0  0  0  0  0
    0.6973    5.1017   -0.9013 H   0  0  0  0  0  0  0  0  0  0  0  0
   -0.6041    5.9938    0.0000 H   0  0  0  0  0  0  0  0  0  0  0  0
    0.6973    5.1019    0.9013 H   0  0  0  0  0  0  0  0  0  0  0  0
    5.9339    1.7711    0.9064 H   0  0  0  0  0  0  0  0  0  0  0  0
    5.9340    1.7692   -0.9068 H   0  0  0  0  0  0  0  0  0  0  0  0
    6.0941    3.3315   -0.0021 H   0  0  0  0  0  0  0  0  0  0  0  0
  1  2  2  0  0  0  0
  1  3  1  0  0  0  0
  1  4  1  0  0  0  0
  2  5  1  0  0  0  0
  3  6  2  0  0  0  0
  4  7  1  0  0  0  0
  4 15  1  0  0  0  0
  5  8  2  0  0  0  0
  5  9  1  0  0  0  0
  6  8  1  0  0  0  0
  6 10  1  0  0  0  0
  7 11  1  0  0  0  0
  7 16  1  0  0  0  0
  7 17  1  0  0  0  0
  9 12  1  0  0  0  0
  9 18  1  0  0  0  0
 10 13  1  0  0  0  0
 11 19  1  0  0  0  0
 11 20  1  0  0  0  0
 11 21  1  0  0  0  0
 12 14  1  0  0  0  0
 12 22  1  0  0  0  0
 12 23  1  0  0  0  0
 13 24  1  0  0  0  0
 13 25  1  0  0  0  0
 13 26  1  0  0  0  0
 14 27  1  0  0  0  0
 14 28  1  0  0  0  0
 14 29  1  0  0  0  0
M  END