90051.out.mol
  Mrv0541 03111415023D          

 17 17  0  0  0  0            999 V2000
    0.0000    0.0000    0.0000 C   0  0  0  0  0  0  0  0  0  0  0  0
    1.4151    0.0000    0.0000 C   0  0  0  0  0  0  0  0  0  0  0  0
   -0.7005    1.2069    0.0000 C   0  0  0  0  0  0  0  0  0  0  0  0
   -0.5794   -1.2592   -0.0006 O   0  0  0  0  0  0  0  0  0  0  0  0
    2.1114    1.2145   -0.0005 C   0  0  0  0  0  0  0  0  0  0  0  0
    2.1619   -1.1540   -0.0005 O   0  0  0  0  0  0  0  0  0  0  0  0
    0.0066    2.4104   -0.0005 C   0  0  0  0  0  0  0  0  0  0  0  0
   -2.0014   -1.2897    0.0026 C   0  0  0  0  0  0  0  0  0  0  0  0
    1.3995    2.4132   -0.0016 C   0  0  0  0  0  0  0  0  0  0  0  0
   -1.7992    1.2183   -0.0004 H   0  0  0  0  0  0  0  0  0  0  0  0
    3.2105    1.2027   -0.0010 H   0  0  0  0  0  0  0  0  0  0  0  0
    1.5523   -1.9076   -0.0002 H   0  0  0  0  0  0  0  0  0  0  0  0
   -0.5458    3.3612   -0.0001 H   0  0  0  0  0  0  0  0  0  0  0  0
   -2.4033   -0.7982    0.9218 H   0  0  0  0  0  0  0  0  0  0  0  0
   -2.4073   -0.7977   -0.9146 H   0  0  0  0  0  0  0  0  0  0  0  0
   -2.2381   -2.3839    0.0020 H   0  0  0  0  0  0  0  0  0  0  0  0
    1.9475    3.3669   -0.0016 H   0  0  0  0  0  0  0  0  0  0  0  0
  1  2  2  0  0  0  0
  1  3  1  0  0  0  0
  1  4  1  0  0  0  0
  2  5  1  0  0  0  0
  2  6  1  0  0  0  0
  3  7  2  0  0  0  0
  3 10  1  0  0  0  0
  4  8  1  0  0  0  0
  5  9  2  0  0  0  0
  5 11  1  0  0  0  0
  6 12  1  0  0  0  0
  7  9  1  0  0  0  0
  7 13  1  0  0  0  0
  8 14  1  0  0  0  0
  8 15  1  0  0  0  0
  8 16  1  0  0  0  0
  9 17  1  0  0  0  0
M  END