78999.out.mol
  Mrv0541 03111415023D          

 11 10  0  0  0  0            999 V2000
    0.0000    0.0000    0.0000 C   0  0  1  0  0  0  0  0  0  0  0  0
    1.5154    0.0000    0.0000 C   0  0  1  0  0  0  0  0  0  0  0  0
   -0.6574    1.6316    0.0000 Cl  0  0  0  0  0  0  0  0  0  0  0  0
   -0.6575   -0.9309   -1.3400 Cl  0  0  0  0  0  0  0  0  0  0  0  0
    2.1377    0.6358   -1.2150 C   0  0  0  0  0  0  0  0  0  0  0  0
   -0.3962   -0.4849    0.9273 H   0  0  0  0  0  0  0  0  0  0  0  0
    1.8619    0.5389    0.9236 H   0  0  0  0  0  0  0  0  0  0  0  0
    1.8619   -1.0661    0.0838 H   0  0  0  0  0  0  0  0  0  0  0  0
    3.2510    0.5914   -1.1336 H   0  0  0  0  0  0  0  0  0  0  0  0
    1.8304    0.1018   -2.1467 H   0  0  0  0  0  0  0  0  0  0  0  0
    1.8329    1.7066   -1.3057 H   0  0  0  0  0  0  0  0  0  0  0  0
  1  2  1  0  0  0  0
  1  3  1  0  0  0  0
  1  4  1  0  0  0  0
  1  6  1  0  0  0  0
  2  5  1  0  0  0  0
  2  7  1  0  0  0  0
  2  8  1  0  0  0  0
  5  9  1  0  0  0  0
  5 10  1  0  0  0  0
  5 11  1  0  0  0  0
M  END