142961.out.mol
  Mrv0541 03111415023D          

 27 26  0  0  0  0            999 V2000
    0.0000    0.0000    0.0000 O   0  0  0  0  0  0  0  0  0  0  0  0
    1.4260    0.0000    0.0000 C   0  0  1  0  0  0  0  0  0  0  0  0
   -0.5374    1.3209    0.0000 C   0  0  1  0  0  0  0  0  0  0  0  0
    1.8613   -1.4545   -0.0007 C   0  0  1  0  0  0  0  0  0  0  0  0
   -2.0486    1.1760    0.0007 C   0  0  1  0  0  0  0  0  0  0  0  0
    3.3708   -1.5563   -0.0001 C   0  0  1  0  0  0  0  0  0  0  0  0
   -2.7118    2.5358    0.0013 C   0  0  1  0  0  0  0  0  0  0  0  0
    3.8232   -2.9937   -0.0013 C   0  0  0  0  0  0  0  0  0  0  0  0
   -4.2137    2.4132    0.0014 C   0  0  0  0  0  0  0  0  0  0  0  0
    1.8033    0.5334   -0.9132 H   0  0  0  0  0  0  0  0  0  0  0  0
    1.8033    0.5330    0.9134 H   0  0  0  0  0  0  0  0  0  0  0  0
   -0.1856    1.8713    0.9133 H   0  0  0  0  0  0  0  0  0  0  0  0
   -0.1857    1.8713   -0.9133 H   0  0  0  0  0  0  0  0  0  0  0  0
    1.4381   -1.9685    0.9012 H   0  0  0  0  0  0  0  0  0  0  0  0
    1.4383   -1.9677   -0.9031 H   0  0  0  0  0  0  0  0  0  0  0  0
   -2.3654    0.5909   -0.9016 H   0  0  0  0  0  0  0  0  0  0  0  0
   -2.3646    0.5901    0.9026 H   0  0  0  0  0  0  0  0  0  0  0  0
    3.7827   -1.0312   -0.9022 H   0  0  0  0  0  0  0  0  0  0  0  0
    3.7819   -1.0326    0.9034 H   0  0  0  0  0  0  0  0  0  0  0  0
   -2.3810    3.1142    0.9044 H   0  0  0  0  0  0  0  0  0  0  0  0
   -2.3813    3.1150   -0.9013 H   0  0  0  0  0  0  0  0  0  0  0  0
    3.4423   -3.5276    0.9027 H   0  0  0  0  0  0  0  0  0  0  0  0
    3.4437   -3.5256   -0.9072 H   0  0  0  0  0  0  0  0  0  0  0  0
    4.9385   -3.0491   -0.0004 H   0  0  0  0  0  0  0  0  0  0  0  0
   -4.5642    1.8609   -0.9040 H   0  0  0  0  0  0  0  0  0  0  0  0
   -4.5640    1.8595    0.9059 H   0  0  0  0  0  0  0  0  0  0  0  0
   -4.6853    3.4254    0.0023 H   0  0  0  0  0  0  0  0  0  0  0  0
  1  2  1  0  0  0  0
  1  3  1  0  0  0  0
  2  4  1  0  0  0  0
  2 10  1  0  0  0  0
  2 11  1  0  0  0  0
  3  5  1  0  0  0  0
  3 12  1  0  0  0  0
  3 13  1  0  0  0  0
  4  6  1  0  0  0  0
  4 14  1  0  0  0  0
  4 15  1  0  0  0  0
  5  7  1  0  0  0  0
  5 16  1  0  0  0  0
  5 17  1  0  0  0  0
  6  8  1  0  0  0  0
  6 18  1  0  0  0  0
  6 19  1  0  0  0  0
  7  9  1  0  0  0  0
  7 20  1  0  0  0  0
  7 21  1  0  0  0  0
  8 22  1  0  0  0  0
  8 23  1  0  0  0  0
  8 24  1  0  0  0  0
  9 25  1  0  0  0  0
  9 26  1  0  0  0  0
  9 27  1  0  0  0  0
M  END