106445.out.mol
  Mrv0541 03111415023D          

 16 16  0  0  0  0            999 V2000
    0.0000    0.0000    0.0000 C   0  0  0  0  0  0  0  0  0  0  0  0
    1.4018    0.0000    0.0000 C   0  0  0  0  0  0  0  0  0  0  0  0
   -0.6841    1.2199    0.0000 C   0  0  0  0  0  0  0  0  0  0  0  0
   -0.7438   -1.2802    0.0133 C   0  0  0  0  0  0  0  0  0  0  0  0
    2.1164    1.1918    0.0018 C   0  0  0  0  0  0  0  0  0  0  0  0
    0.0119    2.4261    0.0018 C   0  0  0  0  0  0  0  0  0  0  0  0
    1.4130    2.4081    0.0031 C   0  0  0  0  0  0  0  0  0  0  0  0
    2.1722    3.5567    0.0044 O   0  0  0  0  0  0  0  0  0  0  0  0
    1.9443   -0.9577   -0.0022 H   0  0  0  0  0  0  0  0  0  0  0  0
   -1.7847    1.2292   -0.0020 H   0  0  0  0  0  0  0  0  0  0  0  0
   -0.8305   -1.6619    1.0621 H   0  0  0  0  0  0  0  0  0  0  0  0
   -1.7750   -1.1513   -0.3979 H   0  0  0  0  0  0  0  0  0  0  0  0
   -0.2150   -2.0539   -0.5964 H   0  0  0  0  0  0  0  0  0  0  0  0
    3.2151    1.2004    0.0014 H   0  0  0  0  0  0  0  0  0  0  0  0
   -0.5309    3.3814    0.0014 H   0  0  0  0  0  0  0  0  0  0  0  0
    1.5673    4.3124    0.0048 H   0  0  0  0  0  0  0  0  0  0  0  0
  1  2  2  0  0  0  0
  1  3  1  0  0  0  0
  1  4  1  0  0  0  0
  2  5  1  0  0  0  0
  2  9  1  0  0  0  0
  3  6  2  0  0  0  0
  3 10  1  0  0  0  0
  4 11  1  0  0  0  0
  4 12  1  0  0  0  0
  4 13  1  0  0  0  0
  5  7  2  0  0  0  0
  5 14  1  0  0  0  0
  6  7  1  0  0  0  0
  6 15  1  0  0  0  0
  7  8  1  0  0  0  0
  8 16  1  0  0  0  0
M  END