119653.out.mol
  Mrv0541 03111415023D          

 17 18  0  0  0  0            999 V2000
    0.0000    0.0000    0.0000 C   0  0  0  0  0  0  0  0  0  0  0  0
    1.4193    0.0000    0.0000 C   0  0  0  0  0  0  0  0  0  0  0  0
   -0.6901    1.2414    0.0000 C   0  0  0  0  0  0  0  0  0  0  0  0
   -0.6690   -1.2555   -0.0006 C   0  0  0  0  0  0  0  0  0  0  0  0
    2.1207    1.2314    0.0006 C   0  0  0  0  0  0  0  0  0  0  0  0
    2.0850   -1.2719   -0.0006 C   0  0  0  0  0  0  0  0  0  0  0  0
    0.0124    2.4225    0.0005 C   0  0  0  0  0  0  0  0  0  0  0  0
    0.0837   -2.4157   -0.0005 C   0  0  0  0  0  0  0  0  0  0  0  0
    1.4283    2.4189    0.0016 C   0  0  0  0  0  0  0  0  0  0  0  0
    1.4547   -2.4350   -0.0006 N   0  0  0  0  0  0  0  0  0  0  0  0
   -1.7902    1.2356   -0.0004 H   0  0  0  0  0  0  0  0  0  0  0  0
   -1.7665   -1.2873   -0.0001 H   0  0  0  0  0  0  0  0  0  0  0  0
    3.2210    1.2165    0.0010 H   0  0  0  0  0  0  0  0  0  0  0  0
    3.1902   -1.3039   -0.0002 H   0  0  0  0  0  0  0  0  0  0  0  0
   -0.5171    3.3873    0.0001 H   0  0  0  0  0  0  0  0  0  0  0  0
   -0.3905   -3.4131   -0.0005 H   0  0  0  0  0  0  0  0  0  0  0  0
    1.9641    3.3797    0.0025 H   0  0  0  0  0  0  0  0  0  0  0  0
  1  2  2  0  0  0  0
  1  3  1  0  0  0  0
  1  4  1  0  0  0  0
  2  5  1  0  0  0  0
  2  6  1  0  0  0  0
  3  7  2  0  0  0  0
  3 11  1  0  0  0  0
  4  8  2  0  0  0  0
  4 12  1  0  0  0  0
  5  9  2  0  0  0  0
  5 13  1  0  0  0  0
  6 10  2  0  0  0  0
  6 14  1  0  0  0  0
  7  9  1  0  0  0  0
  7 15  1  0  0  0  0
  8 10  1  0  0  0  0
  8 16  1  0  0  0  0
  9 17  1  0  0  0  0
M  END