75252.out.mol
  Mrv0541 03111415023D          

  5  4  0  0  0  0            999 V2000
    0.0000    0.0000    0.0000 C   0  0  1  0  0  0  0  0  0  0  0  0
    1.9067    0.0000    0.0000 Br  0  0  0  0  0  0  0  0  0  0  0  0
   -0.7053    1.7715    0.0000 Br  0  0  0  0  0  0  0  0  0  0  0  0
   -0.7053   -1.0400   -1.4341 Br  0  0  0  0  0  0  0  0  0  0  0  0
   -0.3275   -0.4830    0.9468 H   0  0  0  0  0  0  0  0  0  0  0  0
  1  2  1  0  0  0  0
  1  3  1  0  0  0  0
  1  4  1  0  0  0  0
  1  5  1  0  0  0  0
M  END