3483123.out.mol
  Mrv0541 03111415023D          

 18 17  0  0  0  0            999 V2000
    0.0000    0.0000    0.0000 C   0  0  1  0  0  0  0  0  0  0  0  0
    1.5423    0.0000    0.0000 C   0  0  1  0  0  0  0  0  0  0  0  0
   -0.5827    1.4038    0.0000 C   0  0  1  0  0  0  0  0  0  0  0  0
   -0.5011   -0.6466   -1.1607 O   0  0  0  0  0  0  0  0  0  0  0  0
    2.1005    0.3892    1.3580 C   0  0  1  0  0  0  0  0  0  0  0  0
    1.9175   -1.3259   -0.3493 O   0  0  0  0  0  0  0  0  0  0  0  0
   -0.0314    2.4681   -1.3008 S   0  0  0  0  0  0  0  0  0  0  0  0
    3.8578    0.5596    1.3599 S   0  0  0  0  0  0  0  0  0  0  0  0
   -0.3632   -0.5541    0.9132 H   0  0  0  0  0  0  0  0  0  0  0  0
    1.9075    0.7144   -0.7945 H   0  0  0  0  0  0  0  0  0  0  0  0
   -1.6970    1.3161   -0.0395 H   0  0  0  0  0  0  0  0  0  0  0  0
   -0.3011    1.9294    0.9453 H   0  0  0  0  0  0  0  0  0  0  0  0
   -0.0637   -1.5065   -1.2247 H   0  0  0  0  0  0  0  0  0  0  0  0
    1.6120    1.3276    1.7120 H   0  0  0  0  0  0  0  0  0  0  0  0
    1.8924   -0.4214    2.1024 H   0  0  0  0  0  0  0  0  0  0  0  0
    2.8811   -1.3713   -0.2720 H   0  0  0  0  0  0  0  0  0  0  0  0
   -0.3499    1.7155   -2.3458 H   0  0  0  0  0  0  0  0  0  0  0  0
    3.9789    1.6392    0.6046 H   0  0  0  0  0  0  0  0  0  0  0  0
  1  2  1  0  0  0  0
  1  3  1  0  0  0  0
  1  4  1  0  0  0  0
  1  9  1  1  0  0  0
  2  5  1  0  0  0  0
  2  6  1  0  0  0  0
  2 10  1  6  0  0  0
  3  7  1  0  0  0  0
  3 11  1  0  0  0  0
  3 12  1  0  0  0  0
  4 13  1  0  0  0  0
  5  8  1  0  0  0  0
  5 14  1  0  0  0  0
  5 15  1  0  0  0  0
  6 16  1  0  0  0  0
  7 17  1  0  0  0  0
  8 18  1  0  0  0  0
M  END