95476.out.mol
  Mrv0541 03111415023D          

 18 18  0  0  0  0            999 V2000
    0.0000    0.0000    0.0000 C   0  0  0  0  0  0  0  0  0  0  0  0
    1.4067    0.0000    0.0000 C   0  0  0  0  0  0  0  0  0  0  0  0
   -0.6885    1.2179    0.0000 C   0  0  0  0  0  0  0  0  0  0  0  0
   -0.7470   -1.2789   -0.0006 C   0  0  0  0  0  0  0  0  0  0  0  0
    2.0952    1.2179    0.0005 C   0  0  0  0  0  0  0  0  0  0  0  0
    2.1537   -1.2789   -0.0006 C   0  0  0  0  0  0  0  0  0  0  0  0
    0.0063    2.4255    0.0005 C   0  0  0  0  0  0  0  0  0  0  0  0
    1.4004    2.4255    0.0016 C   0  0  0  0  0  0  0  0  0  0  0  0
   -1.7889    1.2205   -0.0004 H   0  0  0  0  0  0  0  0  0  0  0  0
   -0.4830   -1.8819    0.9048 H   0  0  0  0  0  0  0  0  0  0  0  0
   -1.8510   -1.1067   -0.0010 H   0  0  0  0  0  0  0  0  0  0  0  0
   -0.4823   -1.8815   -0.9060 H   0  0  0  0  0  0  0  0  0  0  0  0
    3.1956    1.2205    0.0001 H   0  0  0  0  0  0  0  0  0  0  0  0
    1.8898   -1.8810   -0.9066 H   0  0  0  0  0  0  0  0  0  0  0  0
    3.2577   -1.1067    0.0000 H   0  0  0  0  0  0  0  0  0  0  0  0
    1.8889   -1.8823    0.9042 H   0  0  0  0  0  0  0  0  0  0  0  0
   -0.5454    3.3767    0.0010 H   0  0  0  0  0  0  0  0  0  0  0  0
    1.9520    3.3767    0.0016 H   0  0  0  0  0  0  0  0  0  0  0  0
  1  2  2  0  0  0  0
  1  3  1  0  0  0  0
  1  4  1  0  0  0  0
  2  5  1  0  0  0  0
  2  6  1  0  0  0  0
  3  7  2  0  0  0  0
  3  9  1  0  0  0  0
  4 10  1  0  0  0  0
  4 11  1  0  0  0  0
  4 12  1  0  0  0  0
  5  8  2  0  0  0  0
  5 13  1  0  0  0  0
  6 14  1  0  0  0  0
  6 15  1  0  0  0  0
  6 16  1  0  0  0  0
  7  8  1  0  0  0  0
  7 17  1  0  0  0  0
  8 18  1  0  0  0  0
M  END