79925.out.mol
  Mrv0541 03111415023D          

 26 27  0  0  0  0            999 V2000
    0.0000    0.0000    0.0000 C   0  0  1  0  0  0  0  0  0  0  0  0
    1.5622    0.0000    0.0000 C   0  0  1  0  0  0  0  0  0  0  0  0
   -0.3072    1.5231    0.0000 C   0  0  1  0  0  0  0  0  0  0  0  0
   -0.5012   -0.3794   -1.4072 C   0  0  1  0  0  0  0  0  0  0  0  0
    1.8735    1.2162   -0.8646 C   0  0  0  0  0  0  0  0  0  0  0  0
    2.0825    0.1803    1.4158 C   0  0  0  0  0  0  0  0  0  0  0  0
    2.1585   -1.2661   -0.5832 C   0  0  0  0  0  0  0  0  0  0  0  0
    0.5420    1.8099   -1.2696 C   0  0  1  0  0  0  0  0  0  0  0  0
   -0.0926    0.8241   -2.2785 C   0  0  1  0  0  0  0  0  0  0  0  0
    3.0761    1.6731   -1.1916 C   0  0  0  0  0  0  0  0  0  0  0  0
   -0.4418   -0.5907    0.8233 H   0  0  0  0  0  0  0  0  0  0  0  0
   -1.3868    1.7446   -0.1465 H   0  0  0  0  0  0  0  0  0  0  0  0
    0.0629    2.0542    0.9024 H   0  0  0  0  0  0  0  0  0  0  0  0
   -0.0592   -1.3334   -1.7744 H   0  0  0  0  0  0  0  0  0  0  0  0
   -1.6121   -0.4989   -1.3946 H   0  0  0  0  0  0  0  0  0  0  0  0
    1.8480   -0.7260    2.0247 H   0  0  0  0  0  0  0  0  0  0  0  0
    3.1898    0.3264    1.4006 H   0  0  0  0  0  0  0  0  0  0  0  0
    1.6174    1.0680    1.9061 H   0  0  0  0  0  0  0  0  0  0  0  0
    2.0351   -1.2939   -1.6926 H   0  0  0  0  0  0  0  0  0  0  0  0
    3.2521   -1.3129   -0.3579 H   0  0  0  0  0  0  0  0  0  0  0  0
    1.6632   -2.1632   -0.1405 H   0  0  0  0  0  0  0  0  0  0  0  0
    0.5771    2.8615   -1.6109 H   0  0  0  0  0  0  0  0  0  0  0  0
    0.6360    0.5294   -3.0691 H   0  0  0  0  0  0  0  0  0  0  0  0
   -0.9814    1.2877   -2.7678 H   0  0  0  0  0  0  0  0  0  0  0  0
    3.9991    1.1838   -0.8543 H   0  0  0  0  0  0  0  0  0  0  0  0
    3.2153    2.5638   -1.8171 H   0  0  0  0  0  0  0  0  0  0  0  0
  1  2  1  0  0  0  0
  1  3  1  0  0  0  0
  1  4  1  0  0  0  0
  1 11  1  1  0  0  0
  2  5  1  0  0  0  0
  2  6  1  0  0  0  0
  2  7  1  0  0  0  0
  3  8  1  0  0  0  0
  3 12  1  0  0  0  0
  3 13  1  0  0  0  0
  4  9  1  0  0  0  0
  4 14  1  0  0  0  0
  4 15  1  0  0  0  0
  5  8  1  0  0  0  0
  5 10  2  0  0  0  0
  6 16  1  0  0  0  0
  6 17  1  0  0  0  0
  6 18  1  0  0  0  0
  7 19  1  0  0  0  0
  7 20  1  0  0  0  0
  7 21  1  0  0  0  0
  8  9  1  0  0  0  0
  8 22  1  6  0  0  0
  9 23  1  0  0  0  0
  9 24  1  0  0  0  0
 10 25  1  0  0  0  0
 10 26  1  0  0  0  0
M  END