120821.out.mol
  Mrv0541 03111415023D          

 12 12  0  0  0  0            999 V2000
    0.0000    0.0000    0.0000 C   0  0  0  0  0  0  0  0  0  0  0  0
    1.4034    0.0000    0.0000 C   0  0  0  0  0  0  0  0  0  0  0  0
   -0.7009    1.2109    0.0000 C   0  0  0  0  0  0  0  0  0  0  0  0
   -0.8765   -1.4509   -0.0006 Cl  0  0  0  0  0  0  0  0  0  0  0  0
    2.0986    1.2151    0.0005 C   0  0  0  0  0  0  0  0  0  0  0  0
    2.2797   -1.4507   -0.0006 Cl  0  0  0  0  0  0  0  0  0  0  0  0
    0.0063    2.4153    0.0005 C   0  0  0  0  0  0  0  0  0  0  0  0
    1.4054    2.4216    0.0005 C   0  0  0  0  0  0  0  0  0  0  0  0
   -0.8436    3.8849   -0.0001 Cl  0  0  0  0  0  0  0  0  0  0  0  0
   -1.8028    1.2103   -0.0004 H   0  0  0  0  0  0  0  0  0  0  0  0
    3.2001    1.2168    0.0001 H   0  0  0  0  0  0  0  0  0  0  0  0
    1.9584    3.3736    0.0014 H   0  0  0  0  0  0  0  0  0  0  0  0
  1  2  2  0  0  0  0
  1  3  1  0  0  0  0
  1  4  1  0  0  0  0
  2  5  1  0  0  0  0
  2  6  1  0  0  0  0
  3  7  2  0  0  0  0
  3 10  1  0  0  0  0
  5  8  2  0  0  0  0
  5 11  1  0  0  0  0
  7  8  1  0  0  0  0
  7  9  1  0  0  0  0
  8 12  1  0  0  0  0
M  END