534134.out.mol
  Mrv0541 03111415023D          

 14 13  0  0  0  0            999 V2000
    0.0000    0.0000    0.0000 C   0  0  0  0  0  0  0  0  0  0  0  0
    1.3850    0.0000    0.0000 N   0  0  0  0  0  0  0  0  0  0  0  0
   -0.6727    1.2045    0.0000 N   0  0  0  0  0  0  0  0  0  0  0  0
   -0.7828   -1.4308   -0.0006 S   0  0  0  0  0  0  0  0  0  0  0  0
    2.2115    1.1599    0.0020 C   0  0  0  0  0  0  0  0  0  0  0  0
   -2.1041    1.2419   -0.0018 C   0  0  0  0  0  0  0  0  0  0  0  0
    1.8091   -0.9024    0.0016 H   0  0  0  0  0  0  0  0  0  0  0  0
   -0.1828    2.0677   -0.0013 H   0  0  0  0  0  0  0  0  0  0  0  0
    2.0258    1.7923   -0.9094 H   0  0  0  0  0  0  0  0  0  0  0  0
    2.0252    1.7900    0.9149 H   0  0  0  0  0  0  0  0  0  0  0  0
    3.2887    0.8449    0.0019 H   0  0  0  0  0  0  0  0  0  0  0  0
   -2.5102    0.7215   -0.9125 H   0  0  0  0  0  0  0  0  0  0  0  0
   -2.5123    0.7192    0.9065 H   0  0  0  0  0  0  0  0  0  0  0  0
   -2.4345    2.3133   -0.0010 H   0  0  0  0  0  0  0  0  0  0  0  0
  1  2  1  0  0  0  0
  1  3  1  0  0  0  0
  1  4  2  0  0  0  0
  2  5  1  0  0  0  0
  2  7  1  0  0  0  0
  3  6  1  0  0  0  0
  3  8  1  0  0  0  0
  5  9  1  0  0  0  0
  5 10  1  0  0  0  0
  5 11  1  0  0  0  0
  6 12  1  0  0  0  0
  6 13  1  0  0  0  0
  6 14  1  0  0  0  0
M  END