100027.out.mol
  Mrv0541 03111415023D          

 15 15  0  0  0  0            999 V2000
    0.0000    0.0000    0.0000 C   0  0  0  0  0  0  0  0  0  0  0  0
    1.4824    0.0000    0.0000 N   0  3  0  0  0  0  0  0  0  0  0  0
   -0.6930    1.2222    0.0000 C   0  0  0  0  0  0  0  0  0  0  0  0
   -0.6942   -1.2246   -0.0005 C   0  0  0  0  0  0  0  0  0  0  0  0
    2.0658   -1.0514   -0.0005 O   0  5  0  0  0  0  0  0  0  0  0  0
    2.0651    1.0521    0.0005 O   0  0  0  0  0  0  0  0  0  0  0  0
   -2.0825    1.2200   -0.0005 C   0  0  0  0  0  0  0  0  0  0  0  0
   -2.0812   -1.2274   -0.0011 C   0  0  0  0  0  0  0  0  0  0  0  0
   -2.7746   -0.0020   -0.0016 C   0  0  0  0  0  0  0  0  0  0  0  0
   -4.1421   -0.0779   -0.0017 O   0  0  0  0  0  0  0  0  0  0  0  0
   -0.1375    2.1764    0.0004 H   0  0  0  0  0  0  0  0  0  0  0  0
   -0.1362   -2.1776   -0.0005 H   0  0  0  0  0  0  0  0  0  0  0  0
   -2.6343    2.1712   -0.0001 H   0  0  0  0  0  0  0  0  0  0  0  0
   -2.6467   -2.1708   -0.0011 H   0  0  0  0  0  0  0  0  0  0  0  0
   -4.4992    0.8237   -0.0013 H   0  0  0  0  0  0  0  0  0  0  0  0
  1  2  1  0  0  0  0
  1  3  2  0  0  0  0
  1  4  1  0  0  0  0
  2  5  1  0  0  0  0
  2  6  2  0  0  0  0
  3  7  1  0  0  0  0
  3 11  1  0  0  0  0
  4  8  2  0  0  0  0
  4 12  1  0  0  0  0
  7  9  2  0  0  0  0
  7 13  1  0  0  0  0
  8  9  1  0  0  0  0
  8 14  1  0  0  0  0
  9 10  1  0  0  0  0
 10 15  1  0  0  0  0
M  CHG  2   2   1   5  -1
M  END