1516321.out.mol
  Mrv0541 03111415023D          

 20 19  0  0  0  0            999 V2000
    0.0000    0.0000    0.0000 N   0  0  0  0  0  0  0  0  0  0  0  0
    1.3749    0.0000    0.0000 C   0  0  0  0  0  0  0  0  0  0  0  0
    2.1962    1.4085    0.0000 S   0  0  0  0  0  0  0  0  0  0  0  0
    2.0781   -1.1978    0.0300 N   0  0  0  0  0  0  0  0  0  0  0  0
    1.5096   -2.4951   -0.2055 C   0  0  1  0  0  0  0  0  0  0  0  0
    1.0872   -2.8031   -1.6422 C   0  0  1  0  0  0  0  0  0  0  0  0
    2.2702   -2.8852   -2.5816 C   0  0  1  0  0  0  0  0  0  0  0  0
    1.8395   -3.2731   -3.9729 C   0  0  0  0  0  0  0  0  0  0  0  0
   -0.4462    0.8793    0.1204 H   0  0  0  0  0  0  0  0  0  0  0  0
   -0.5383   -0.8261    0.0810 H   0  0  0  0  0  0  0  0  0  0  0  0
    3.0535   -1.0934   -0.1664 H   0  0  0  0  0  0  0  0  0  0  0  0
    2.2861   -3.2524    0.1096 H   0  0  0  0  0  0  0  0  0  0  0  0
    0.6167   -2.6362    0.4692 H   0  0  0  0  0  0  0  0  0  0  0  0
    0.5470   -3.7867   -1.6346 H   0  0  0  0  0  0  0  0  0  0  0  0
    0.3660   -2.0281   -2.0117 H   0  0  0  0  0  0  0  0  0  0  0  0
    2.7967   -1.8947   -2.6172 H   0  0  0  0  0  0  0  0  0  0  0  0
    3.0061   -3.6381   -2.1925 H   0  0  0  0  0  0  0  0  0  0  0  0
    1.1239   -2.5225   -4.3877 H   0  0  0  0  0  0  0  0  0  0  0  0
    2.7257   -3.3278   -4.6502 H   0  0  0  0  0  0  0  0  0  0  0  0
    1.3376   -4.2708   -3.9680 H   0  0  0  0  0  0  0  0  0  0  0  0
  1  2  1  0  0  0  0
  1  9  1  0  0  0  0
  1 10  1  0  0  0  0
  2  3  2  0  0  0  0
  2  4  1  0  0  0  0
  4  5  1  0  0  0  0
  4 11  1  0  0  0  0
  5  6  1  0  0  0  0
  5 12  1  0  0  0  0
  5 13  1  0  0  0  0
  6  7  1  0  0  0  0
  6 14  1  0  0  0  0
  6 15  1  0  0  0  0
  7  8  1  0  0  0  0
  7 16  1  0  0  0  0
  7 17  1  0  0  0  0
  8 18  1  0  0  0  0
  8 19  1  0  0  0  0
  8 20  1  0  0  0  0
M  END