95487.out.mol
  Mrv0541 03111415023D          

 16 16  0  0  0  0            999 V2000
    0.0000    0.0000    0.0000 C   0  0  0  0  0  0  0  0  0  0  0  0
    1.4112    0.0000    0.0000 C   0  0  0  0  0  0  0  0  0  0  0  0
   -0.6581    1.2314    0.0000 C   0  0  0  0  0  0  0  0  0  0  0  0
   -0.7428   -1.2786   -0.0006 C   0  0  0  0  0  0  0  0  0  0  0  0
    2.1367    1.1985    0.0005 C   0  0  0  0  0  0  0  0  0  0  0  0
    2.0279   -1.2321   -0.0006 O   0  0  0  0  0  0  0  0  0  0  0  0
    0.0579    2.4288    0.0005 C   0  0  0  0  0  0  0  0  0  0  0  0
    1.4512    2.4115    0.0005 C   0  0  0  0  0  0  0  0  0  0  0  0
   -1.7587    1.2532   -0.0004 H   0  0  0  0  0  0  0  0  0  0  0  0
   -0.4681   -1.8807    0.9019 H   0  0  0  0  0  0  0  0  0  0  0  0
   -1.8466   -1.1088    0.0000 H   0  0  0  0  0  0  0  0  0  0  0  0
   -0.4702   -1.8786   -0.9053 H   0  0  0  0  0  0  0  0  0  0  0  0
    3.2353    1.1792    0.0010 H   0  0  0  0  0  0  0  0  0  0  0  0
    2.9846   -1.0842   -0.0001 H   0  0  0  0  0  0  0  0  0  0  0  0
   -0.4802    3.3875    0.0010 H   0  0  0  0  0  0  0  0  0  0  0  0
    2.0153    3.3558    0.0005 H   0  0  0  0  0  0  0  0  0  0  0  0
  1  2  2  0  0  0  0
  1  3  1  0  0  0  0
  1  4  1  0  0  0  0
  2  5  1  0  0  0  0
  2  6  1  0  0  0  0
  3  7  2  0  0  0  0
  3  9  1  0  0  0  0
  4 10  1  0  0  0  0
  4 11  1  0  0  0  0
  4 12  1  0  0  0  0
  5  8  2  0  0  0  0
  5 13  1  0  0  0  0
  6 14  1  0  0  0  0
  7  8  1  0  0  0  0
  7 15  1  0  0  0  0
  8 16  1  0  0  0  0
M  END