108952.out.mol
  Mrv0541 03111415023D          

 13 13  0  0  0  0            999 V2000
    0.0000    0.0000    0.0000 C   0  0  0  0  0  0  0  0  0  0  0  0
    1.4019    0.0000    0.0000 C   0  0  0  0  0  0  0  0  0  0  0  0
   -0.7228    1.2051    0.0000 C   0  0  0  0  0  0  0  0  0  0  0  0
   -0.7423   -1.1595    0.0005 O   0  0  0  0  0  0  0  0  0  0  0  0
    2.0799    1.2176    0.0005 C   0  0  0  0  0  0  0  0  0  0  0  0
   -0.0238    2.4080   -0.0005 C   0  0  0  0  0  0  0  0  0  0  0  0
    1.3726    2.4188    0.0016 C   0  0  0  0  0  0  0  0  0  0  0  0
    1.9568   -0.9481    0.0004 H   0  0  0  0  0  0  0  0  0  0  0  0
   -1.8210    1.1792   -0.0004 H   0  0  0  0  0  0  0  0  0  0  0  0
   -0.1270   -1.9068    0.0004 H   0  0  0  0  0  0  0  0  0  0  0  0
    3.1800    1.2265    0.0010 H   0  0  0  0  0  0  0  0  0  0  0  0
   -0.5793    3.3579   -0.0010 H   0  0  0  0  0  0  0  0  0  0  0  0
    1.9138    3.3755    0.0025 H   0  0  0  0  0  0  0  0  0  0  0  0
  1  2  2  0  0  0  0
  1  3  1  0  0  0  0
  1  4  1  0  0  0  0
  2  5  1  0  0  0  0
  2  8  1  0  0  0  0
  3  6  2  0  0  0  0
  3  9  1  0  0  0  0
  4 10  1  0  0  0  0
  5  7  2  0  0  0  0
  5 11  1  0  0  0  0
  6  7  1  0  0  0  0
  6 12  1  0  0  0  0
  7 13  1  0  0  0  0
M  END