91203.out.mol
  Mrv0541 03111415023D          

 18 19  0  0  0  0            999 V2000
    0.0000    0.0000    0.0000 C   0  0  0  0  0  0  0  0  0  0  0  0
    1.4187    0.0000    0.0000 C   0  0  0  0  0  0  0  0  0  0  0  0
   -0.6924    1.2420    0.0000 C   0  0  0  0  0  0  0  0  0  0  0  0
   -0.6924   -1.2420   -0.0006 C   0  0  0  0  0  0  0  0  0  0  0  0
    2.1112    1.2420    0.0006 C   0  0  0  0  0  0  0  0  0  0  0  0
    2.1112   -1.2420    0.0006 C   0  0  0  0  0  0  0  0  0  0  0  0
    0.0013    2.4268    0.0005 C   0  0  0  0  0  0  0  0  0  0  0  0
    0.0013   -2.4268   -0.0006 C   0  0  0  0  0  0  0  0  0  0  0  0
    1.4174    2.4268    0.0006 C   0  0  0  0  0  0  0  0  0  0  0  0
    1.4174   -2.4268    0.0006 C   0  0  0  0  0  0  0  0  0  0  0  0
   -1.7927    1.2318   -0.0004 H   0  0  0  0  0  0  0  0  0  0  0  0
   -1.7927   -1.2318   -0.0010 H   0  0  0  0  0  0  0  0  0  0  0  0
    3.2114    1.2318    0.0010 H   0  0  0  0  0  0  0  0  0  0  0  0
    3.2114   -1.2318    0.0001 H   0  0  0  0  0  0  0  0  0  0  0  0
   -0.5319    3.3889    0.0001 H   0  0  0  0  0  0  0  0  0  0  0  0
   -0.5319   -3.3889   -0.0014 H   0  0  0  0  0  0  0  0  0  0  0  0
    1.9506    3.3889    0.0006 H   0  0  0  0  0  0  0  0  0  0  0  0
    1.9506   -3.3889    0.0006 H   0  0  0  0  0  0  0  0  0  0  0  0
  1  2  2  0  0  0  0
  1  3  1  0  0  0  0
  1  4  1  0  0  0  0
  2  5  1  0  0  0  0
  2  6  1  0  0  0  0
  3  7  2  0  0  0  0
  3 11  1  0  0  0  0
  4  8  2  0  0  0  0
  4 12  1  0  0  0  0
  5  9  2  0  0  0  0
  5 13  1  0  0  0  0
  6 10  2  0  0  0  0
  6 14  1  0  0  0  0
  7  9  1  0  0  0  0
  7 15  1  0  0  0  0
  8 10  1  0  0  0  0
  8 16  1  0  0  0  0
  9 17  1  0  0  0  0
 10 18  1  0  0  0  0
M  END