108907.out.mol
  Mrv0541 03111415023D          

 12 12  0  0  0  0            999 V2000
    0.0000    0.0000    0.0000 C   0  0  0  0  0  0  0  0  0  0  0  0
    1.3985    0.0000    0.0000 C   0  0  0  0  0  0  0  0  0  0  0  0
   -0.7131    1.2031    0.0000 C   0  0  0  0  0  0  0  0  0  0  0  0
   -0.8421   -1.4780    0.0007 Cl  0  0  0  0  0  0  0  0  0  0  0  0
    2.0825    1.2150   -0.0005 C   0  0  0  0  0  0  0  0  0  0  0  0
   -0.0166    2.4110   -0.0005 C   0  0  0  0  0  0  0  0  0  0  0  0
    1.3783    2.4190   -0.0005 C   0  0  0  0  0  0  0  0  0  0  0  0
    1.9549   -0.9492    0.0004 H   0  0  0  0  0  0  0  0  0  0  0  0
   -1.8133    1.1978    0.0004 H   0  0  0  0  0  0  0  0  0  0  0  0
    3.1826    1.2200   -0.0001 H   0  0  0  0  0  0  0  0  0  0  0  0
   -0.5731    3.3599   -0.0001 H   0  0  0  0  0  0  0  0  0  0  0  0
    1.9227    3.3746   -0.0014 H   0  0  0  0  0  0  0  0  0  0  0  0
  1  2  2  0  0  0  0
  1  3  1  0  0  0  0
  1  4  1  0  0  0  0
  2  5  1  0  0  0  0
  2  8  1  0  0  0  0
  3  6  2  0  0  0  0
  3  9  1  0  0  0  0
  5  7  2  0  0  0  0
  5 10  1  0  0  0  0
  6  7  1  0  0  0  0
  6 11  1  0  0  0  0
  7 12  1  0  0  0  0
M  END