92831.out.mol
  Mrv0541 03111415023D          

 24 26  0  0  0  0            999 V2000
    0.0000    0.0000    0.0000 C   0  0  0  0  0  0  0  0  0  0  0  0
    1.4012    0.0000    0.0000 C   0  0  0  0  0  0  0  0  0  0  0  0
   -0.7745    1.2673    0.0000 C   0  0  1  0  0  0  0  0  0  0  0  0
   -0.6657   -1.2317   -0.0006 C   0  0  0  0  0  0  0  0  0  0  0  0
    2.1754    1.1536    0.0005 O   0  0  0  0  0  0  0  0  0  0  0  0
    2.1353   -1.1984    0.0005 C   0  0  0  0  0  0  0  0  0  0  0  0
    0.0952    2.4712   -0.0006 C   0  0  0  0  0  0  0  0  0  0  0  0
    0.0503   -2.4251   -0.0005 C   0  0  0  0  0  0  0  0  0  0  0  0
    1.4923    2.3634    0.0005 C   0  0  0  0  0  0  0  0  0  0  0  0
    1.4473   -2.4067    0.0016 C   0  0  0  0  0  0  0  0  0  0  0  0
   -0.4737    3.7505   -0.0012 C   0  0  0  0  0  0  0  0  0  0  0  0
    2.3164    3.5018    0.0005 C   0  0  0  0  0  0  0  0  0  0  0  0
    0.3320    4.8853   -0.0023 C   0  0  0  0  0  0  0  0  0  0  0  0
    1.7234    4.7594   -0.0001 C   0  0  0  0  0  0  0  0  0  0  0  0
   -1.4454    1.2930   -0.9043 H   0  0  0  0  0  0  0  0  0  0  0  0
   -1.4449    1.2933    0.9046 H   0  0  0  0  0  0  0  0  0  0  0  0
   -1.7659   -1.2469   -0.0001 H   0  0  0  0  0  0  0  0  0  0  0  0
    3.2336   -1.1625    0.0009 H   0  0  0  0  0  0  0  0  0  0  0  0
   -0.4847   -3.3857   -0.0006 H   0  0  0  0  0  0  0  0  0  0  0  0
    2.0094   -3.3524    0.0016 H   0  0  0  0  0  0  0  0  0  0  0  0
   -1.5695    3.8503   -0.0008 H   0  0  0  0  0  0  0  0  0  0  0  0
    3.4087    3.3815    0.0000 H   0  0  0  0  0  0  0  0  0  0  0  0
   -0.1275    5.8842   -0.0024 H   0  0  0  0  0  0  0  0  0  0  0  0
    2.3566    5.6591    0.0003 H   0  0  0  0  0  0  0  0  0  0  0  0
  1  2  2  0  0  0  0
  1  3  1  0  0  0  0
  1  4  1  0  0  0  0
  2  5  1  0  0  0  0
  2  6  1  0  0  0  0
  3  7  1  0  0  0  0
  3 15  1  0  0  0  0
  3 16  1  0  0  0  0
  4  8  2  0  0  0  0
  4 17  1  0  0  0  0
  5  9  1  0  0  0  0
  6 10  2  0  0  0  0
  6 18  1  0  0  0  0
  7  9  2  0  0  0  0
  7 11  1  0  0  0  0
  8 10  1  0  0  0  0
  8 19  1  0  0  0  0
  9 12  1  0  0  0  0
 10 20  1  0  0  0  0
 11 13  2  0  0  0  0
 11 21  1  0  0  0  0
 12 14  2  0  0  0  0
 12 22  1  0  0  0  0
 13 14  1  0  0  0  0
 13 23  1  0  0  0  0
 14 24  1  0  0  0  0
M  END