127184.out.mol
  Mrv0541 03111415023D          

  6  5  0  0  0  0            999 V2000
    0.0000    0.0000    0.0000 C   0  0  0  0  0  0  0  0  0  0  0  0
    1.3513    0.0000    0.0000 C   0  0  0  0  0  0  0  0  0  0  0  0
   -0.8987    1.4321    0.0000 Cl  0  0  0  0  0  0  0  0  0  0  0  0
   -0.8987   -1.4320   -0.0006 Cl  0  0  0  0  0  0  0  0  0  0  0  0
    2.2499    1.4320    0.0006 Cl  0  0  0  0  0  0  0  0  0  0  0  0
    2.2499   -1.4320   -0.0006 Cl  0  0  0  0  0  0  0  0  0  0  0  0
  1  2  2  0  0  0  0
  1  3  1  0  0  0  0
  1  4  1  0  0  0  0
  2  5  1  0  0  0  0
  2  6  1  0  0  0  0
M  END