99514.out.mol
  Mrv0541 03111415023D          

 20 20  0  0  0  0            999 V2000
    0.0000    0.0000    0.0000 C   0  0  0  0  0  0  0  0  0  0  0  0
    1.4030    0.0000    0.0000 C   0  0  0  0  0  0  0  0  0  0  0  0
   -0.7199    1.2051    0.0000 C   0  0  0  0  0  0  0  0  0  0  0  0
   -0.7326   -1.2923   -0.0006 N   0  3  0  0  0  0  0  0  0  0  0  0
    2.0942    1.2138    0.0005 C   0  0  0  0  0  0  0  0  0  0  0  0
   -0.0195    2.4067   -0.0005 C   0  0  0  0  0  0  0  0  0  0  0  0
   -1.9349   -1.2808   -0.0001 O   0  5  0  0  0  0  0  0  0  0  0  0
   -0.1059   -2.3185   -0.0006 O   0  0  0  0  0  0  0  0  0  0  0  0
    1.3801    2.4268   -0.0016 C   0  0  0  0  0  0  0  0  0  0  0  0
    3.5758    1.2177    0.0000 C   0  0  0  0  0  0  0  0  0  0  0  0
    2.1050    3.7179   -0.0028 C   0  0  0  0  0  0  0  0  0  0  0  0
    1.9566   -0.9552    0.0004 H   0  0  0  0  0  0  0  0  0  0  0  0
   -1.8231    1.1970   -0.0004 H   0  0  0  0  0  0  0  0  0  0  0  0
   -0.5787    3.3556   -0.0010 H   0  0  0  0  0  0  0  0  0  0  0  0
    3.9599    1.7501   -0.9068 H   0  0  0  0  0  0  0  0  0  0  0  0
    3.9606    1.7524    0.9052 H   0  0  0  0  0  0  0  0  0  0  0  0
    3.9874    0.1788    0.0011 H   0  0  0  0  0  0  0  0  0  0  0  0
    2.7589    3.7917   -0.9088 H   0  0  0  0  0  0  0  0  0  0  0  0
    1.3991    4.5841   -0.0032 H   0  0  0  0  0  0  0  0  0  0  0  0
    2.7592    3.7930    0.9029 H   0  0  0  0  0  0  0  0  0  0  0  0
  1  2  2  0  0  0  0
  1  3  1  0  0  0  0
  1  4  1  0  0  0  0
  2  5  1  0  0  0  0
  2 12  1  0  0  0  0
  3  6  2  0  0  0  0
  3 13  1  0  0  0  0
  4  7  1  0  0  0  0
  4  8  2  0  0  0  0
  5  9  2  0  0  0  0
  5 10  1  0  0  0  0
  6  9  1  0  0  0  0
  6 14  1  0  0  0  0
  9 11  1  0  0  0  0
 10 15  1  0  0  0  0
 10 16  1  0  0  0  0
 10 17  1  0  0  0  0
 11 18  1  0  0  0  0
 11 19  1  0  0  0  0
 11 20  1  0  0  0  0
M  CHG  2   4   1   7  -1
M  END