90040.out.mol
  Mrv0541 03111415023D          

 18 18  0  0  0  0            999 V2000
    0.0000    0.0000    0.0000 C   0  0  0  0  0  0  0  0  0  0  0  0
    1.4269    0.0000    0.0000 C   0  0  0  0  0  0  0  0  0  0  0  0
   -0.7205    1.1945    0.0000 C   0  0  0  0  0  0  0  0  0  0  0  0
   -0.6090   -1.2469    0.0592 O   0  0  0  0  0  0  0  0  0  0  0  0
    2.0748    1.2533    0.0385 C   0  0  0  0  0  0  0  0  0  0  0  0
    2.1660   -1.1840   -0.1144 N   0  0  1  0  0  0  0  0  0  0  0  0
   -0.0466    2.4146    0.0178 C   0  0  0  0  0  0  0  0  0  0  0  0
   -1.9181   -1.3141   -0.4947 C   0  0  0  0  0  0  0  0  0  0  0  0
    1.3447    2.4379    0.0424 C   0  0  0  0  0  0  0  0  0  0  0  0
   -1.8197    1.1766   -0.0089 H   0  0  0  0  0  0  0  0  0  0  0  0
    3.1745    1.2966    0.0524 H   0  0  0  0  0  0  0  0  0  0  0  0
    3.0346   -1.1591    0.3741 H   0  0  0  0  0  0  0  0  0  0  0  0
    1.6352   -2.0061    0.0808 H   0  0  0  0  0  0  0  0  0  0  0  0
   -0.6177    3.3536    0.0173 H   0  0  0  0  0  0  0  0  0  0  0  0
   -2.6540   -0.8500    0.2069 H   0  0  0  0  0  0  0  0  0  0  0  0
   -1.9627   -0.8156   -1.4924 H   0  0  0  0  0  0  0  0  0  0  0  0
   -2.1095   -2.4129   -0.5898 H   0  0  0  0  0  0  0  0  0  0  0  0
    1.8777    3.4001    0.0634 H   0  0  0  0  0  0  0  0  0  0  0  0
  1  2  2  0  0  0  0
  1  3  1  0  0  0  0
  1  4  1  0  0  0  0
  2  5  1  0  0  0  0
  2  6  1  0  0  0  0
  3  7  2  0  0  0  0
  3 10  1  0  0  0  0
  4  8  1  0  0  0  0
  5  9  2  0  0  0  0
  5 11  1  0  0  0  0
  6 12  1  0  0  0  0
  6 13  1  0  0  0  0
  7  9  1  0  0  0  0
  7 14  1  0  0  0  0
  8 15  1  0  0  0  0
  8 16  1  0  0  0  0
  8 17  1  0  0  0  0
  9 18  1  0  0  0  0
M  END