91645.out.mol
  Mrv0541 03111415023D          

 17 18  0  0  0  0            999 V2000
    0.0000    0.0000    0.0000 C   0  0  0  0  0  0  0  0  0  0  0  0
    1.4092    0.0000    0.0000 C   0  0  0  0  0  0  0  0  0  0  0  0
   -0.7434    1.1606    0.0000 O   0  0  0  0  0  0  0  0  0  0  0  0
   -0.7299   -1.2042   -0.0005 C   0  0  0  0  0  0  0  0  0  0  0  0
    2.0955    1.2689    0.0006 C   0  0  0  0  0  0  0  0  0  0  0  0
    2.0837   -1.2328    0.0006 C   0  0  0  0  0  0  0  0  0  0  0  0
   -0.0729    2.3854   -0.0005 C   0  0  0  0  0  0  0  0  0  0  0  0
   -0.0345   -2.4042   -0.0005 C   0  0  0  0  0  0  0  0  0  0  0  0
    1.3836    2.4137    0.0006 C   0  0  0  0  0  0  0  0  0  0  0  0
    1.3680   -2.4206    0.0005 C   0  0  0  0  0  0  0  0  0  0  0  0
   -0.8698    3.3220   -0.0010 O   0  0  0  0  0  0  0  0  0  0  0  0
   -1.8289   -1.1705   -0.0001 H   0  0  0  0  0  0  0  0  0  0  0  0
    3.1970    1.2655    0.0010 H   0  0  0  0  0  0  0  0  0  0  0  0
    3.1842   -1.2432    0.0001 H   0  0  0  0  0  0  0  0  0  0  0  0
   -0.5894   -3.3552   -0.0005 H   0  0  0  0  0  0  0  0  0  0  0  0
    1.8423    3.4132    0.0014 H   0  0  0  0  0  0  0  0  0  0  0  0
    1.8994   -3.3838    0.0006 H   0  0  0  0  0  0  0  0  0  0  0  0
  1  2  2  0  0  0  0
  1  3  1  0  0  0  0
  1  4  1  0  0  0  0
  2  5  1  0  0  0  0
  2  6  1  0  0  0  0
  3  7  1  0  0  0  0
  4  8  2  0  0  0  0
  4 12  1  0  0  0  0
  5  9  2  0  0  0  0
  5 13  1  0  0  0  0
  6 10  2  0  0  0  0
  6 14  1  0  0  0  0
  7  9  1  0  0  0  0
  7 11  2  0  0  0  0
  8 10  1  0  0  0  0
  8 15  1  0  0  0  0
  9 16  1  0  0  0  0
 10 17  1  0  0  0  0
M  END