576261.out.mol
  Mrv0541 03111415023D          

 19 19  0  0  0  0            999 V2000
    0.0000    0.0000    0.0000 C   0  0  0  0  0  0  0  0  0  0  0  0
    1.4119    0.0000    0.0000 C   0  0  0  0  0  0  0  0  0  0  0  0
   -0.7317    1.2015    0.0000 C   0  0  0  0  0  0  0  0  0  0  0  0
   -0.5958   -1.2425   -0.0006 O   0  0  0  0  0  0  0  0  0  0  0  0
    2.0773    1.2262    0.0005 C   0  0  0  0  0  0  0  0  0  0  0  0
    2.1498   -1.2821    0.0006 C   0  0  0  0  0  0  0  0  0  0  0  0
   -0.0280    2.4108   -0.0006 C   0  0  0  0  0  0  0  0  0  0  0  0
   -2.2123    1.1971    0.0006 C   0  0  0  0  0  0  0  0  0  0  0  0
    1.3635    2.4244   -0.0005 C   0  0  0  0  0  0  0  0  0  0  0  0
   -1.5558   -1.1202   -0.0001 H   0  0  0  0  0  0  0  0  0  0  0  0
    3.1778    1.2438    0.0010 H   0  0  0  0  0  0  0  0  0  0  0  0
    1.8732   -1.8826   -0.9025 H   0  0  0  0  0  0  0  0  0  0  0  0
    3.2542   -1.1164    0.0000 H   0  0  0  0  0  0  0  0  0  0  0  0
    1.8740   -1.8815    0.9046 H   0  0  0  0  0  0  0  0  0  0  0  0
   -0.5854    3.3597   -0.0001 H   0  0  0  0  0  0  0  0  0  0  0  0
   -2.6043    0.6724    0.9085 H   0  0  0  0  0  0  0  0  0  0  0  0
   -2.6168    2.2389    0.0009 H   0  0  0  0  0  0  0  0  0  0  0  0
   -2.6050    0.6731   -0.9075 H   0  0  0  0  0  0  0  0  0  0  0  0
    1.9028    3.3825   -0.0006 H   0  0  0  0  0  0  0  0  0  0  0  0
  1  2  2  0  0  0  0
  1  3  1  0  0  0  0
  1  4  1  0  0  0  0
  2  5  1  0  0  0  0
  2  6  1  0  0  0  0
  3  7  2  0  0  0  0
  3  8  1  0  0  0  0
  4 10  1  0  0  0  0
  5  9  2  0  0  0  0
  5 11  1  0  0  0  0
  6 12  1  0  0  0  0
  6 13  1  0  0  0  0
  6 14  1  0  0  0  0
  7  9  1  0  0  0  0
  7 15  1  0  0  0  0
  8 16  1  0  0  0  0
  8 17  1  0  0  0  0
  8 18  1  0  0  0  0
  9 19  1  0  0  0  0
M  END