99081.out.mol
  Mrv0541 03111415023D          

 17 17  0  0  0  0            999 V2000
    0.0000    0.0000    0.0000 C   0  0  0  0  0  0  0  0  0  0  0  0
    1.4032    0.0000    0.0000 C   0  0  0  0  0  0  0  0  0  0  0  0
   -0.7255    1.2022    0.0000 C   0  0  0  0  0  0  0  0  0  0  0  0
   -0.7303   -1.2952    0.0006 N   0  3  0  0  0  0  0  0  0  0  0  0
    2.0892    1.2185   -0.0009 C   0  0  0  0  0  0  0  0  0  0  0  0
   -0.0268    2.4072    0.0005 C   0  0  0  0  0  0  0  0  0  0  0  0
   -1.9324   -1.2859    0.0010 O   0  5  0  0  0  0  0  0  0  0  0  0
   -0.1009   -2.3195   -0.0001 O   0  0  0  0  0  0  0  0  0  0  0  0
    1.3669    2.4184    0.0005 C   0  0  0  0  0  0  0  0  0  0  0  0
    3.5704    1.2343   -0.0166 C   0  0  0  0  0  0  0  0  0  0  0  0
    1.9600   -0.9529    0.0004 H   0  0  0  0  0  0  0  0  0  0  0  0
   -1.8284    1.1895    0.0004 H   0  0  0  0  0  0  0  0  0  0  0  0
   -0.5846    3.3563    0.0010 H   0  0  0  0  0  0  0  0  0  0  0  0
    1.9074    3.3780    0.0024 H   0  0  0  0  0  0  0  0  0  0  0  0
    3.9392    1.2583   -1.0735 H   0  0  0  0  0  0  0  0  0  0  0  0
    3.9651    2.1363    0.5128 H   0  0  0  0  0  0  0  0  0  0  0  0
    3.9870    0.3226    0.4786 H   0  0  0  0  0  0  0  0  0  0  0  0
  1  2  2  0  0  0  0
  1  3  1  0  0  0  0
  1  4  1  0  0  0  0
  2  5  1  0  0  0  0
  2 11  1  0  0  0  0
  3  6  2  0  0  0  0
  3 12  1  0  0  0  0
  4  7  1  0  0  0  0
  4  8  2  0  0  0  0
  5  9  2  0  0  0  0
  5 10  1  0  0  0  0
  6  9  1  0  0  0  0
  6 13  1  0  0  0  0
  9 14  1  0  0  0  0
 10 15  1  0  0  0  0
 10 16  1  0  0  0  0
 10 17  1  0  0  0  0
M  CHG  2   4   1   7  -1
M  END