63252.out.mol
  Mrv0541 03111415023D          

 26 27  0  0  0  0            999 V2000
    0.0000    0.0000    0.0000 C   0  0  0  0  0  0  0  0  0  0  0  0
    1.4304    0.0000    0.0000 C   0  0  0  0  0  0  0  0  0  0  0  0
   -0.6610    1.2555    0.0000 C   0  0  0  0  0  0  0  0  0  0  0  0
   -0.7700   -1.1934    0.0061 C   0  0  0  0  0  0  0  0  0  0  0  0
    2.0298   -1.2531    0.1256 O   0  0  0  0  0  0  0  0  0  0  0  0
    2.1592    1.1702   -0.0102 C   0  0  0  0  0  0  0  0  0  0  0  0
    0.1047    2.4539   -0.0099 C   0  0  0  0  0  0  0  0  0  0  0  0
   -2.0827    1.2828    0.0055 C   0  0  0  0  0  0  0  0  0  0  0  0
   -2.1423   -1.1358    0.0090 C   0  0  0  0  0  0  0  0  0  0  0  0
    3.0503   -1.5873   -0.7621 C   0  0  0  0  0  0  0  0  0  0  0  0
    1.4765    2.4091   -0.0175 C   0  0  0  0  0  0  0  0  0  0  0  0
   -2.8051    0.1149    0.0097 C   0  0  0  0  0  0  0  0  0  0  0  0
    3.3390   -2.9366   -0.7092 N   0  0  0  0  0  0  0  0  0  0  0  0
    3.5523   -0.7197   -1.4887 O   0  0  0  0  0  0  0  0  0  0  0  0
    4.5624   -3.4245   -1.2717 C   0  0  0  0  0  0  0  0  0  0  0  0
   -0.2398   -2.1580    0.0089 H   0  0  0  0  0  0  0  0  0  0  0  0
    3.2590    1.1475   -0.0403 H   0  0  0  0  0  0  0  0  0  0  0  0
   -0.4276    3.4170   -0.0147 H   0  0  0  0  0  0  0  0  0  0  0  0
   -2.5891    2.2597    0.0059 H   0  0  0  0  0  0  0  0  0  0  0  0
   -2.7412   -2.0583    0.0110 H   0  0  0  0  0  0  0  0  0  0  0  0
    2.0693    3.3361   -0.0307 H   0  0  0  0  0  0  0  0  0  0  0  0
   -3.9049    0.1364    0.0135 H   0  0  0  0  0  0  0  0  0  0  0  0
    2.9332   -3.4563    0.0355 H   0  0  0  0  0  0  0  0  0  0  0  0
    4.8758   -2.7714   -2.1298 H   0  0  0  0  0  0  0  0  0  0  0  0
    5.3898   -3.4445   -0.5109 H   0  0  0  0  0  0  0  0  0  0  0  0
    4.3860   -4.4690   -1.6438 H   0  0  0  0  0  0  0  0  0  0  0  0
  1  2  2  0  0  0  0
  1  3  1  0  0  0  0
  1  4  1  0  0  0  0
  2  5  1  0  0  0  0
  2  6  1  0  0  0  0
  3  7  2  0  0  0  0
  3  8  1  0  0  0  0
  4  9  2  0  0  0  0
  4 16  1  0  0  0  0
  5 10  1  0  0  0  0
  6 11  2  0  0  0  0
  6 17  1  0  0  0  0
  7 11  1  0  0  0  0
  7 18  1  0  0  0  0
  8 12  2  0  0  0  0
  8 19  1  0  0  0  0
  9 12  1  0  0  0  0
  9 20  1  0  0  0  0
 10 13  1  0  0  0  0
 10 14  2  0  0  0  0
 11 21  1  0  0  0  0
 12 22  1  0  0  0  0
 13 15  1  0  0  0  0
 13 23  1  0  0  0  0
 15 24  1  0  0  0  0
 15 25  1  0  0  0  0
 15 26  1  0  0  0  0
M  END