88722.out.mol
  Mrv0541 03111415023D          

 17 17  0  0  0  0            999 V2000
    0.0000    0.0000    0.0000 C   0  0  0  0  0  0  0  0  0  0  0  0
    1.4100    0.0000    0.0000 C   0  0  0  0  0  0  0  0  0  0  0  0
   -0.7215    1.2101    0.0000 C   0  0  0  0  0  0  0  0  0  0  0  0
   -0.7795   -1.2657    0.0006 N   0  3  0  0  0  0  0  0  0  0  0  0
    2.0674    1.2400   -0.0006 C   0  0  0  0  0  0  0  0  0  0  0  0
    2.2146   -1.2420    0.0006 C   0  0  0  0  0  0  0  0  0  0  0  0
   -0.0392    2.4203   -0.0005 C   0  0  0  0  0  0  0  0  0  0  0  0
   -0.2121   -2.3255   -0.0067 O   0  5  0  0  0  0  0  0  0  0  0  0
   -1.9816   -1.1986    0.0084 O   0  0  0  0  0  0  0  0  0  0  0  0
    1.3570    2.4351   -0.0006 C   0  0  0  0  0  0  0  0  0  0  0  0
   -1.8258    1.1944    0.0004 H   0  0  0  0  0  0  0  0  0  0  0  0
    3.1688    1.2586   -0.0001 H   0  0  0  0  0  0  0  0  0  0  0  0
    1.9782   -1.8598   -0.9039 H   0  0  0  0  0  0  0  0  0  0  0  0
    3.3089   -1.0152    0.0031 H   0  0  0  0  0  0  0  0  0  0  0  0
    1.9745   -1.8617    0.9026 H   0  0  0  0  0  0  0  0  0  0  0  0
   -0.6035    3.3650   -0.0010 H   0  0  0  0  0  0  0  0  0  0  0  0
    1.8962    3.3952   -0.0014 H   0  0  0  0  0  0  0  0  0  0  0  0
  1  2  2  0  0  0  0
  1  3  1  0  0  0  0
  1  4  1  0  0  0  0
  2  5  1  0  0  0  0
  2  6  1  0  0  0  0
  3  7  2  0  0  0  0
  3 11  1  0  0  0  0
  4  8  1  0  0  0  0
  4  9  2  0  0  0  0
  5 10  2  0  0  0  0
  5 12  1  0  0  0  0
  6 13  1  0  0  0  0
  6 14  1  0  0  0  0
  6 15  1  0  0  0  0
  7 10  1  0  0  0  0
  7 16  1  0  0  0  0
 10 17  1  0  0  0  0
M  CHG  2   4   1   8  -1
M  END