109466.out.mol
  Mrv0541 03111415023D          

 32 31  0  0  0  0            999 V2000
    0.0000    0.0000    0.0000 N   0  0  0  0  0  0  0  0  0  0  0  0
    1.3816    0.0000    0.0000 C   0  0  0  0  0  0  0  0  0  0  0  0
   -0.7606    1.2233    0.0000 C   0  0  1  0  0  0  0  0  0  0  0  0
    2.0590   -1.2072   -0.0981 N   0  0  0  0  0  0  0  0  0  0  0  0
    2.2696    1.3565    0.2072 S   0  0  0  0  0  0  0  0  0  0  0  0
   -1.4197    1.5711   -1.3338 C   0  0  1  0  0  0  0  0  0  0  0  0
    1.4823   -2.4738   -0.4428 C   0  0  1  0  0  0  0  0  0  0  0  0
   -2.4092    0.5227   -1.7924 C   0  0  1  0  0  0  0  0  0  0  0  0
    1.0517   -2.6502   -1.8999 C   0  0  1  0  0  0  0  0  0  0  0  0
   -3.2094    1.0029   -2.9763 C   0  0  0  0  0  0  0  0  0  0  0  0
    2.2283   -2.6412   -2.8507 C   0  0  1  0  0  0  0  0  0  0  0  0
    1.7895   -2.8992   -4.2694 C   0  0  0  0  0  0  0  0  0  0  0  0
   -0.4970   -0.8176   -0.2759 H   0  0  0  0  0  0  0  0  0  0  0  0
   -1.5629    1.1086    0.7857 H   0  0  0  0  0  0  0  0  0  0  0  0
   -0.0790    2.0762    0.3027 H   0  0  0  0  0  0  0  0  0  0  0  0
    3.0513   -1.1147   -0.1704 H   0  0  0  0  0  0  0  0  0  0  0  0
   -1.9489    2.5512   -1.1943 H   0  0  0  0  0  0  0  0  0  0  0  0
   -0.6378    1.7245   -2.1227 H   0  0  0  0  0  0  0  0  0  0  0  0
    2.2540   -3.2628   -0.2030 H   0  0  0  0  0  0  0  0  0  0  0  0
    0.5906   -2.6716    0.2202 H   0  0  0  0  0  0  0  0  0  0  0  0
   -1.8654   -0.4185   -2.0738 H   0  0  0  0  0  0  0  0  0  0  0  0
   -3.1034    0.2651   -0.9489 H   0  0  0  0  0  0  0  0  0  0  0  0
    0.5157   -3.6332   -1.9778 H   0  0  0  0  0  0  0  0  0  0  0  0
    0.3238   -1.8500   -2.1955 H   0  0  0  0  0  0  0  0  0  0  0  0
   -3.9175    0.2084   -3.3143 H   0  0  0  0  0  0  0  0  0  0  0  0
   -3.8009    1.9122   -2.7098 H   0  0  0  0  0  0  0  0  0  0  0  0
   -2.5350    1.2616   -3.8282 H   0  0  0  0  0  0  0  0  0  0  0  0
    2.7529   -1.6506   -2.7966 H   0  0  0  0  0  0  0  0  0  0  0  0
    2.9680   -3.4254   -2.5378 H   0  0  0  0  0  0  0  0  0  0  0  0
    2.6715   -2.8889   -4.9543 H   0  0  0  0  0  0  0  0  0  0  0  0
    1.2890   -3.8941   -4.3540 H   0  0  0  0  0  0  0  0  0  0  0  0
    1.0704   -2.1149   -4.6087 H   0  0  0  0  0  0  0  0  0  0  0  0
  1  2  1  0  0  0  0
  1  3  1  0  0  0  0
  1 13  1  0  0  0  0
  2  4  1  0  0  0  0
  2  5  2  0  0  0  0
  3  6  1  0  0  0  0
  3 14  1  0  0  0  0
  3 15  1  0  0  0  0
  4  7  1  0  0  0  0
  4 16  1  0  0  0  0
  6  8  1  0  0  0  0
  6 17  1  0  0  0  0
  6 18  1  0  0  0  0
  7  9  1  0  0  0  0
  7 19  1  0  0  0  0
  7 20  1  0  0  0  0
  8 10  1  0  0  0  0
  8 21  1  0  0  0  0
  8 22  1  0  0  0  0
  9 11  1  0  0  0  0
  9 23  1  0  0  0  0
  9 24  1  0  0  0  0
 10 25  1  0  0  0  0
 10 26  1  0  0  0  0
 10 27  1  0  0  0  0
 11 12  1  0  0  0  0
 11 28  1  0  0  0  0
 11 29  1  0  0  0  0
 12 30  1  0  0  0  0
 12 31  1  0  0  0  0
 12 32  1  0  0  0  0
M  END