542756.out.mol
  Mrv0541 03111415023D          

  9  8  0  0  0  0            999 V2000
    0.0000    0.0000    0.0000 C   0  0  0  0  0  0  0  0  0  0  0  0
    1.4786    0.0000    0.0000 C   0  0  1  0  0  0  0  0  0  0  0  0
   -0.7123    1.1301    0.0000 C   0  0  0  0  0  0  0  0  0  0  0  0
    2.1087   -0.7983    1.4339 Cl  0  0  0  0  0  0  0  0  0  0  0  0
   -2.4028    1.1534   -0.0306 Cl  0  0  0  0  0  0  0  0  0  0  0  0
   -0.4784   -0.9940   -0.0031 H   0  0  0  0  0  0  0  0  0  0  0  0
    1.8693   -0.5732   -0.8777 H   0  0  0  0  0  0  0  0  0  0  0  0
    1.9077    1.0317   -0.0038 H   0  0  0  0  0  0  0  0  0  0  0  0
   -0.2741    2.1374    0.0166 H   0  0  0  0  0  0  0  0  0  0  0  0
  1  2  1  0  0  0  0
  1  3  2  0  0  0  0
  1  6  1  0  0  0  0
  2  4  1  0  0  0  0
  2  7  1  0  0  0  0
  2  8  1  0  0  0  0
  3  5  1  0  0  0  0
  3  9  1  0  0  0  0
M  END