79345.out.mol
  Mrv0541 03111415023D          

  8  7  0  0  0  0            999 V2000
    0.0000    0.0000    0.0000 C   0  0  1  0  0  0  0  0  0  0  0  0
    1.5266    0.0000    0.0000 C   0  0  1  0  0  0  0  0  0  0  0  0
   -0.6139    1.6424    0.0000 Cl  0  0  0  0  0  0  0  0  0  0  0  0
   -0.6139   -0.8780   -1.3880 Cl  0  0  0  0  0  0  0  0  0  0  0  0
    2.1405    0.8780    1.3880 Cl  0  0  0  0  0  0  0  0  0  0  0  0
    2.1405   -1.6424    0.0007 Cl  0  0  0  0  0  0  0  0  0  0  0  0
   -0.4108   -0.5023    0.9121 H   0  0  0  0  0  0  0  0  0  0  0  0
    1.9374    0.5023   -0.9121 H   0  0  0  0  0  0  0  0  0  0  0  0
  1  2  1  0  0  0  0
  1  3  1  0  0  0  0
  1  4  1  0  0  0  0
  1  7  1  0  0  0  0
  2  5  1  0  0  0  0
  2  6  1  0  0  0  0
  2  8  1  0  0  0  0
M  END