89598.out.mol
  Mrv0541 03111415023D          

 17 17  0  0  0  0            999 V2000
    0.0000    0.0000    0.0000 C   0  0  0  0  0  0  0  0  0  0  0  0
    1.4095    0.0000    0.0000 C   0  0  0  0  0  0  0  0  0  0  0  0
   -0.7264    1.2062    0.0000 C   0  0  0  0  0  0  0  0  0  0  0  0
   -0.7799   -1.2675    0.0006 N   0  3  0  0  0  0  0  0  0  0  0  0
    2.0662    1.2408    0.0006 C   0  0  0  0  0  0  0  0  0  0  0  0
    2.2152   -1.2410    0.0006 C   0  0  0  0  0  0  0  0  0  0  0  0
   -0.0381    2.4175   -0.0005 C   0  0  0  0  0  0  0  0  0  0  0  0
   -0.2094   -2.3250   -0.0092 O   0  5  0  0  0  0  0  0  0  0  0  0
   -1.9812   -1.2003    0.0108 O   0  0  0  0  0  0  0  0  0  0  0  0
    1.3626    2.4381    0.0006 C   0  0  0  0  0  0  0  0  0  0  0  0
   -0.9049    3.8755   -0.0012 Cl  0  0  0  0  0  0  0  0  0  0  0  0
   -1.8320    1.1884    0.0004 H   0  0  0  0  0  0  0  0  0  0  0  0
    3.1681    1.2604    0.0010 H   0  0  0  0  0  0  0  0  0  0  0  0
    1.9800   -1.8586   -0.9045 H   0  0  0  0  0  0  0  0  0  0  0  0
    3.3093   -1.0131    0.0042 H   0  0  0  0  0  0  0  0  0  0  0  0
    1.9749   -1.8616    0.9021 H   0  0  0  0  0  0  0  0  0  0  0  0
    1.9030    3.3983    0.0006 H   0  0  0  0  0  0  0  0  0  0  0  0
  1  2  2  0  0  0  0
  1  3  1  0  0  0  0
  1  4  1  0  0  0  0
  2  5  1  0  0  0  0
  2  6  1  0  0  0  0
  3  7  2  0  0  0  0
  3 12  1  0  0  0  0
  4  8  1  0  0  0  0
  4  9  2  0  0  0  0
  5 10  2  0  0  0  0
  5 13  1  0  0  0  0
  6 14  1  0  0  0  0
  6 15  1  0  0  0  0
  6 16  1  0  0  0  0
  7 10  1  0  0  0  0
  7 11  1  0  0  0  0
 10 17  1  0  0  0  0
M  CHG  2   4   1   8  -1
M  END