23564058.out.mol
  Mrv0541 03111415023D          

 36 36  0  0  0  0            999 V2000
    0.0000    0.0000    0.0000 C   0  0  0  0  0  0  0  0  0  0  0  0
    1.4332    0.0000    0.0000 C   0  0  0  0  0  0  0  0  0  0  0  0
   -0.7063    1.2258    0.0000 N   0  0  0  0  0  0  0  0  0  0  0  0
   -0.6805   -1.2321   -0.0344 C   0  0  0  0  0  0  0  0  0  0  0  0
    2.1396    1.2193    0.1260 N   0  0  0  0  0  0  0  0  0  0  0  0
    2.1138   -1.2291   -0.0924 C   0  0  0  0  0  0  0  0  0  0  0  0
   -1.7893    1.4836    0.8085 C   0  0  0  0  0  0  0  0  0  0  0  0
    0.0208   -2.4305   -0.1062 C   0  0  0  0  0  0  0  0  0  0  0  0
    3.2226    1.5588   -0.6517 C   0  0  0  0  0  0  0  0  0  0  0  0
    1.4125   -2.4286   -0.1442 C   0  0  0  0  0  0  0  0  0  0  0  0
   -2.4109    2.7499    0.7158 N   0  0  0  0  0  0  0  0  0  0  0  0
   -2.4418    0.4626    1.8756 S   0  0  0  0  0  0  0  0  0  0  0  0
    3.8442    2.8088   -0.4293 N   0  0  0  0  0  0  0  0  0  0  0  0
    3.8752    0.6528   -1.8180 S   0  0  0  0  0  0  0  0  0  0  0  0
   -2.0391    3.8091   -0.0977 C   0  0  0  0  0  0  0  0  0  0  0  0
    3.4724    3.7788    0.4888 C   0  0  0  0  0  0  0  0  0  0  0  0
   -2.8510    4.9067    0.0798 O   0  0  0  0  0  0  0  0  0  0  0  0
   -1.1140    3.8757   -0.9248 O   0  0  0  0  0  0  0  0  0  0  0  0
    4.2845    4.8888    0.4251 O   0  0  0  0  0  0  0  0  0  0  0  0
    2.5471    3.7602    1.3182 O   0  0  0  0  0  0  0  0  0  0  0  0
   -2.5324    6.0410   -0.7342 C   0  0  0  0  0  0  0  0  0  0  0  0
    3.9658    5.9335    1.3513 C   0  0  0  0  0  0  0  0  0  0  0  0
   -0.3670    1.9238   -0.6383 H   0  0  0  0  0  0  0  0  0  0  0  0
   -1.7835   -1.2483    0.0133 H   0  0  0  0  0  0  0  0  0  0  0  0
    1.8002    1.8480    0.8326 H   0  0  0  0  0  0  0  0  0  0  0  0
    3.2167   -1.2403   -0.1416 H   0  0  0  0  0  0  0  0  0  0  0  0
   -0.5336   -3.3809   -0.1356 H   0  0  0  0  0  0  0  0  0  0  0  0
    1.9668   -3.3770   -0.2127 H   0  0  0  0  0  0  0  0  0  0  0  0
   -3.1905    2.8805    1.3362 H   0  0  0  0  0  0  0  0  0  0  0  0
    4.6239    3.0024   -1.0329 H   0  0  0  0  0  0  0  0  0  0  0  0
   -1.4985    6.3939   -0.5056 H   0  0  0  0  0  0  0  0  0  0  0  0
   -2.6196    5.7709   -1.8137 H   0  0  0  0  0  0  0  0  0  0  0  0
   -3.3037    6.7918   -0.4306 H   0  0  0  0  0  0  0  0  0  0  0  0
    4.7372    6.7114    1.1265 H   0  0  0  0  0  0  0  0  0  0  0  0
    2.9319    6.3081    1.1601 H   0  0  0  0  0  0  0  0  0  0  0  0
    4.0529    5.5539    2.3974 H   0  0  0  0  0  0  0  0  0  0  0  0
  1  2  2  0  0  0  0
  1  3  1  0  0  0  0
  1  4  1  0  0  0  0
  2  5  1  0  0  0  0
  2  6  1  0  0  0  0
  3  7  1  0  0  0  0
  3 23  1  0  0  0  0
  4  8  2  0  0  0  0
  4 24  1  0  0  0  0
  5  9  1  0  0  0  0
  5 25  1  0  0  0  0
  6 10  2  0  0  0  0
  6 26  1  0  0  0  0
  7 11  1  0  0  0  0
  7 12  2  0  0  0  0
  8 10  1  0  0  0  0
  8 27  1  0  0  0  0
  9 13  1  0  0  0  0
  9 14  2  0  0  0  0
 10 28  1  0  0  0  0
 11 15  1  0  0  0  0
 11 29  1  0  0  0  0
 13 16  1  0  0  0  0
 13 30  1  0  0  0  0
 15 17  1  0  0  0  0
 15 18  2  0  0  0  0
 16 19  1  0  0  0  0
 16 20  2  0  0  0  0
 17 21  1  0  0  0  0
 19 22  1  0  0  0  0
 21 31  1  0  0  0  0
 21 32  1  0  0  0  0
 21 33  1  0  0  0  0
 22 34  1  0  0  0  0
 22 35  1  0  0  0  0
 22 36  1  0  0  0  0
M  END