634902.out.mol
  Mrv0541 03111415023D          

 12 12  0  0  0  0            999 V2000
    0.0000    0.0000    0.0000 C   0  0  0  0  0  0  0  0  0  0  0  0
    1.4051    0.0000    0.0000 C   0  0  0  0  0  0  0  0  0  0  0  0
   -0.6819    1.2286    0.0000 C   0  0  0  0  0  0  0  0  0  0  0  0
   -0.8579   -1.4573   -0.0007 Cl  0  0  0  0  0  0  0  0  0  0  0  0
    2.1172    1.2026    0.0005 C   0  0  0  0  0  0  0  0  0  0  0  0
    2.2727   -1.4562   -0.0007 Cl  0  0  0  0  0  0  0  0  0  0  0  0
    0.0240    2.4348    0.0005 C   0  0  0  0  0  0  0  0  0  0  0  0
   -2.3762    1.2804   -0.0007 Cl  0  0  0  0  0  0  0  0  0  0  0  0
    1.4206    2.4133    0.0005 C   0  0  0  0  0  0  0  0  0  0  0  0
    2.2812    3.8753    0.0005 Cl  0  0  0  0  0  0  0  0  0  0  0  0
    3.2193    1.1924    0.0010 H   0  0  0  0  0  0  0  0  0  0  0  0
   -0.5198    3.3934    0.0010 H   0  0  0  0  0  0  0  0  0  0  0  0
  1  2  2  0  0  0  0
  1  3  1  0  0  0  0
  1  4  1  0  0  0  0
  2  5  1  0  0  0  0
  2  6  1  0  0  0  0
  3  7  2  0  0  0  0
  3  8  1  0  0  0  0
  5  9  2  0  0  0  0
  5 11  1  0  0  0  0
  7  9  1  0  0  0  0
  7 12  1  0  0  0  0
  9 10  1  0  0  0  0
M  END