86306.out.mol
  Mrv0541 03111415023D          

 25 26  0  0  0  0            999 V2000
    0.0000    0.0000    0.0000 N   0  0  0  0  0  0  0  0  0  0  0  0
    1.4384    0.0000    0.0000 C   0  0  0  0  0  0  0  0  0  0  0  0
   -0.6288    1.2924    0.0000 C   0  0  0  0  0  0  0  0  0  0  0  0
   -0.6270   -1.1859   -0.0082 N   0  0  0  0  0  0  0  0  0  0  0  0
    2.1576   -0.8532    0.8600 C   0  0  0  0  0  0  0  0  0  0  0  0
    2.1414    0.8480   -0.8806 C   0  0  0  0  0  0  0  0  0  0  0  0
   -0.1276    2.3211    0.8249 C   0  0  0  0  0  0  0  0  0  0  0  0
   -1.7573    1.5464   -0.8047 C   0  0  0  0  0  0  0  0  0  0  0  0
   -1.7907   -1.2143   -0.0246 O   0  0  0  0  0  0  0  0  0  0  0  0
    3.5507   -0.8505    0.8313 C   0  0  0  0  0  0  0  0  0  0  0  0
    3.5329    0.8404   -0.8873 C   0  0  0  0  0  0  0  0  0  0  0  0
   -0.7405    3.5701    0.8314 C   0  0  0  0  0  0  0  0  0  0  0  0
   -2.3602    2.8021   -0.7798 C   0  0  0  0  0  0  0  0  0  0  0  0
    4.2417   -0.0070   -0.0361 C   0  0  0  0  0  0  0  0  0  0  0  0
   -1.8567    3.8160    0.0322 C   0  0  0  0  0  0  0  0  0  0  0  0
    1.6329   -1.5281    1.5535 H   0  0  0  0  0  0  0  0  0  0  0  0
    1.5947    1.5215   -1.5589 H   0  0  0  0  0  0  0  0  0  0  0  0
    0.7528    2.1423    1.4617 H   0  0  0  0  0  0  0  0  0  0  0  0
   -2.1799    0.7567   -1.4455 H   0  0  0  0  0  0  0  0  0  0  0  0
    4.1053   -1.5223    1.5038 H   0  0  0  0  0  0  0  0  0  0  0  0
    4.0741    1.5069   -1.5758 H   0  0  0  0  0  0  0  0  0  0  0  0
   -0.3405    4.3660    1.4775 H   0  0  0  0  0  0  0  0  0  0  0  0
   -3.2436    2.9884   -1.4093 H   0  0  0  0  0  0  0  0  0  0  0  0
    5.3412   -0.0100   -0.0507 H   0  0  0  0  0  0  0  0  0  0  0  0
   -2.3382    4.8044    0.0457 H   0  0  0  0  0  0  0  0  0  0  0  0
  1  2  1  0  0  0  0
  1  3  1  0  0  0  0
  1  4  1  0  0  0  0
  2  5  2  0  0  0  0
  2  6  1  0  0  0  0
  3  7  2  0  0  0  0
  3  8  1  0  0  0  0
  4  9  2  0  0  0  0
  5 10  1  0  0  0  0
  5 16  1  0  0  0  0
  6 11  2  0  0  0  0
  6 17  1  0  0  0  0
  7 12  1  0  0  0  0
  7 18  1  0  0  0  0
  8 13  2  0  0  0  0
  8 19  1  0  0  0  0
 10 14  2  0  0  0  0
 10 20  1  0  0  0  0
 11 14  1  0  0  0  0
 11 21  1  0  0  0  0
 12 15  2  0  0  0  0
 12 22  1  0  0  0  0
 13 15  1  0  0  0  0
 13 23  1  0  0  0  0
 14 24  1  0  0  0  0
 15 25  1  0  0  0  0
M  END