618622.out.mol
  Mrv0541 03111415023D          

 14 14  0  0  0  0            999 V2000
    0.0000    0.0000    0.0000 C   0  0  0  0  0  0  0  0  0  0  0  0
    1.4030    0.0000    0.0000 C   0  0  0  0  0  0  0  0  0  0  0  0
   -0.7328    1.1965    0.0000 C   0  0  0  0  0  0  0  0  0  0  0  0
   -0.7281   -1.2998   -0.0006 N   0  3  0  0  0  0  0  0  0  0  0  0
    2.0711    1.2276    0.0005 C   0  0  0  0  0  0  0  0  0  0  0  0
   -0.0348    2.4074   -0.0005 C   0  0  0  0  0  0  0  0  0  0  0  0
   -1.9290   -1.2899   -0.0010 O   0  5  0  0  0  0  0  0  0  0  0  0
   -0.0925   -2.3187   -0.0005 O   0  0  0  0  0  0  0  0  0  0  0  0
    1.3636    2.4341    0.0006 C   0  0  0  0  0  0  0  0  0  0  0  0
    3.7661    1.2525    0.0012 Cl  0  0  0  0  0  0  0  0  0  0  0  0
   -0.8988    3.8657    0.0001 Cl  0  0  0  0  0  0  0  0  0  0  0  0
    1.9639   -0.9520    0.0004 H   0  0  0  0  0  0  0  0  0  0  0  0
   -1.8375    1.1776    0.0004 H   0  0  0  0  0  0  0  0  0  0  0  0
    1.9026    3.3962    0.0006 H   0  0  0  0  0  0  0  0  0  0  0  0
  1  2  2  0  0  0  0
  1  3  1  0  0  0  0
  1  4  1  0  0  0  0
  2  5  1  0  0  0  0
  2 12  1  0  0  0  0
  3  6  2  0  0  0  0
  3 13  1  0  0  0  0
  4  7  1  0  0  0  0
  4  8  2  0  0  0  0
  5  9  2  0  0  0  0
  5 10  1  0  0  0  0
  6  9  1  0  0  0  0
  6 11  1  0  0  0  0
  9 14  1  0  0  0  0
M  CHG  2   4   1   7  -1
M  END