95578.out.mol
  Mrv0541 03111415023D          

 13 13  0  0  0  0            999 V2000
    0.0000    0.0000    0.0000 C   0  0  0  0  0  0  0  0  0  0  0  0
    1.4062    0.0000    0.0000 C   0  0  0  0  0  0  0  0  0  0  0  0
   -0.7034    1.2189    0.0000 C   0  0  0  0  0  0  0  0  0  0  0  0
   -0.7723   -1.1350   -0.0005 O   0  0  0  0  0  0  0  0  0  0  0  0
    2.0996    1.2147    0.0005 C   0  0  0  0  0  0  0  0  0  0  0  0
    2.2810   -1.4609    0.0007 Cl  0  0  0  0  0  0  0  0  0  0  0  0
    0.0015    2.4159    0.0005 C   0  0  0  0  0  0  0  0  0  0  0  0
    1.3987    2.4168    0.0005 C   0  0  0  0  0  0  0  0  0  0  0  0
   -1.8026    1.1992   -0.0004 H   0  0  0  0  0  0  0  0  0  0  0  0
   -0.1839   -1.9067   -0.0004 H   0  0  0  0  0  0  0  0  0  0  0  0
    3.2006    1.2158    0.0001 H   0  0  0  0  0  0  0  0  0  0  0  0
   -0.5473    3.3699    0.0001 H   0  0  0  0  0  0  0  0  0  0  0  0
    1.9480    3.3693    0.0014 H   0  0  0  0  0  0  0  0  0  0  0  0
  1  2  2  0  0  0  0
  1  3  1  0  0  0  0
  1  4  1  0  0  0  0
  2  5  1  0  0  0  0
  2  6  1  0  0  0  0
  3  7  2  0  0  0  0
  3  9  1  0  0  0  0
  4 10  1  0  0  0  0
  5  8  2  0  0  0  0
  5 11  1  0  0  0  0
  7  8  1  0  0  0  0
  7 12  1  0  0  0  0
  8 13  1  0  0  0  0
M  END