106489.out.mol
  Mrv0541 03111415023D          

 13 13  0  0  0  0            999 V2000
    0.0000    0.0000    0.0000 C   0  0  0  0  0  0  0  0  0  0  0  0
    1.4057    0.0000    0.0000 C   0  0  0  0  0  0  0  0  0  0  0  0
   -0.7201    1.2029    0.0000 C   0  0  0  0  0  0  0  0  0  0  0  0
   -0.6113   -1.2321   -0.0006 O   0  0  0  0  0  0  0  0  0  0  0  0
    2.0839    1.2132   -0.0005 C   0  0  0  0  0  0  0  0  0  0  0  0
   -0.0307    2.4129   -0.0005 C   0  0  0  0  0  0  0  0  0  0  0  0
    1.3667    2.4159   -0.0016 C   0  0  0  0  0  0  0  0  0  0  0  0
    2.2059    3.8950   -0.0016 Cl  0  0  0  0  0  0  0  0  0  0  0  0
    1.9488   -0.9555    0.0004 H   0  0  0  0  0  0  0  0  0  0  0  0
   -1.8190    1.1930    0.0004 H   0  0  0  0  0  0  0  0  0  0  0  0
   -1.5693   -1.0909   -0.0001 H   0  0  0  0  0  0  0  0  0  0  0  0
    3.1848    1.2243   -0.0010 H   0  0  0  0  0  0  0  0  0  0  0  0
   -0.5895    3.3614   -0.0001 H   0  0  0  0  0  0  0  0  0  0  0  0
  1  2  2  0  0  0  0
  1  3  1  0  0  0  0
  1  4  1  0  0  0  0
  2  5  1  0  0  0  0
  2  9  1  0  0  0  0
  3  6  2  0  0  0  0
  3 10  1  0  0  0  0
  4 11  1  0  0  0  0
  5  7  2  0  0  0  0
  5 12  1  0  0  0  0
  6  7  1  0  0  0  0
  6 13  1  0  0  0  0
  7  8  1  0  0  0  0
M  END