90028.out.mol
  Mrv0541 03111415023D          

 15 15  0  0  0  0            999 V2000
    0.0000    0.0000    0.0000 C   0  0  0  0  0  0  0  0  0  0  0  0
    1.4084    0.0000    0.0000 C   0  0  0  0  0  0  0  0  0  0  0  0
   -0.6698    1.2389    0.0000 C   0  0  0  0  0  0  0  0  0  0  0  0
   -0.8075   -1.2202   -0.0005 C   0  0  0  0  0  0  0  0  0  0  0  0
    2.1246    1.2201   -0.0005 C   0  0  0  0  0  0  0  0  0  0  0  0
    2.1894   -1.1193    0.0005 O   0  0  0  0  0  0  0  0  0  0  0  0
    0.0319    2.4331   -0.0005 C   0  0  0  0  0  0  0  0  0  0  0  0
   -0.3403   -2.3658   -0.0015 O   0  0  0  0  0  0  0  0  0  0  0  0
    1.4341    2.4193   -0.0005 C   0  0  0  0  0  0  0  0  0  0  0  0
   -1.7716    1.2501   -0.0004 H   0  0  0  0  0  0  0  0  0  0  0  0
   -1.9101   -1.0567    0.0000 H   0  0  0  0  0  0  0  0  0  0  0  0
    3.2237    1.1879   -0.0010 H   0  0  0  0  0  0  0  0  0  0  0  0
    1.6324   -1.9164    0.0004 H   0  0  0  0  0  0  0  0  0  0  0  0
   -0.5052    3.3922   -0.0001 H   0  0  0  0  0  0  0  0  0  0  0  0
    1.9885    3.3707   -0.0005 H   0  0  0  0  0  0  0  0  0  0  0  0
  1  2  2  0  0  0  0
  1  3  1  0  0  0  0
  1  4  1  0  0  0  0
  2  5  1  0  0  0  0
  2  6  1  0  0  0  0
  3  7  2  0  0  0  0
  3 10  1  0  0  0  0
  4  8  2  0  0  0  0
  4 11  1  0  0  0  0
  5  9  2  0  0  0  0
  5 12  1  0  0  0  0
  6 13  1  0  0  0  0
  7  9  1  0  0  0  0
  7 14  1  0  0  0  0
  9 15  1  0  0  0  0
M  END