1912249.out.mol
  Mrv0541 03111415023D          

 28 28  0  0  0  0            999 V2000
    0.0000    0.0000    0.0000 C   0  0  0  0  0  0  0  0  0  0  0  0
    1.3868    0.0000    0.0000 N   0  0  0  0  0  0  0  0  0  0  0  0
   -0.7874    1.1548    0.0000 N   0  0  0  0  0  0  0  0  0  0  0  0
   -0.6231   -1.2459   -0.0769 N   0  0  0  0  0  0  0  0  0  0  0  0
    1.9810    1.2542   -0.0370 C   0  0  0  0  0  0  0  0  0  0  0  0
   -0.0756    2.3133   -0.0508 C   0  0  0  0  0  0  0  0  0  0  0  0
   -2.0305   -1.4193    0.2430 C   0  0  1  0  0  0  0  0  0  0  0  0
    1.2765    2.4619   -0.0811 N   0  0  0  0  0  0  0  0  0  0  0  0
    3.3664    1.2936    0.0205 N   0  0  0  0  0  0  0  0  0  0  0  0
   -1.0007    3.7723   -0.0776 Cl  0  0  0  0  0  0  0  0  0  0  0  0
   -2.5245   -2.7861   -0.2401 C   0  0  0  0  0  0  0  0  0  0  0  0
   -2.3518   -1.2796    1.7322 C   0  0  0  0  0  0  0  0  0  0  0  0
    4.0995    2.5158   -0.2021 C   0  0  1  0  0  0  0  0  0  0  0  0
    5.6058    2.3082   -0.1971 C   0  0  0  0  0  0  0  0  0  0  0  0
   -0.0424   -2.0341    0.1196 H   0  0  0  0  0  0  0  0  0  0  0  0
   -2.6093   -0.6244   -0.3187 H   0  0  0  0  0  0  0  0  0  0  0  0
    3.8565    0.4337   -0.0851 H   0  0  0  0  0  0  0  0  0  0  0  0
   -2.0173   -3.6157    0.3080 H   0  0  0  0  0  0  0  0  0  0  0  0
   -3.6223   -2.8529   -0.0493 H   0  0  0  0  0  0  0  0  0  0  0  0
   -2.3442   -2.9146   -1.3340 H   0  0  0  0  0  0  0  0  0  0  0  0
   -2.0491   -0.2746    2.1119 H   0  0  0  0  0  0  0  0  0  0  0  0
   -3.4524   -1.3953    1.8780 H   0  0  0  0  0  0  0  0  0  0  0  0
   -1.8296   -2.0634    2.3310 H   0  0  0  0  0  0  0  0  0  0  0  0
    3.7954    2.9754   -1.1881 H   0  0  0  0  0  0  0  0  0  0  0  0
    3.8223    3.2487    0.6106 H   0  0  0  0  0  0  0  0  0  0  0  0
    5.9562    1.8938    0.7786 H   0  0  0  0  0  0  0  0  0  0  0  0
    5.9249    1.6160   -1.0131 H   0  0  0  0  0  0  0  0  0  0  0  0
    6.0974    3.2978   -0.3594 H   0  0  0  0  0  0  0  0  0  0  0  0
  1  2  1  0  0  0  0
  1  3  2  0  0  0  0
  1  4  1  0  0  0  0
  2  5  2  0  0  0  0
  3  6  1  0  0  0  0
  4  7  1  0  0  0  0
  4 15  1  0  0  0  0
  5  8  1  0  0  0  0
  5  9  1  0  0  0  0
  6  8  2  0  0  0  0
  6 10  1  0  0  0  0
  7 11  1  0  0  0  0
  7 12  1  0  0  0  0
  7 16  1  0  0  0  0
  9 13  1  0  0  0  0
  9 17  1  0  0  0  0
 11 18  1  0  0  0  0
 11 19  1  0  0  0  0
 11 20  1  0  0  0  0
 12 21  1  0  0  0  0
 12 22  1  0  0  0  0
 12 23  1  0  0  0  0
 13 14  1  0  0  0  0
 13 24  1  0  0  0  0
 13 25  1  0  0  0  0
 14 26  1  0  0  0  0
 14 27  1  0  0  0  0
 14 28  1  0  0  0  0
M  END