117817.out.mol
  Mrv0541 03111415023D          

 66 66  0  0  0  0            999 V2000
    0.0000    0.0000    0.0000 C   0  0  0  0  0  0  0  0  0  0  0  0
    1.4021    0.0000    0.0000 C   0  0  0  0  0  0  0  0  0  0  0  0
   -0.7952    1.2441    0.0000 C   0  0  0  0  0  0  0  0  0  0  0  0
   -0.6945   -1.2168    0.0072 C   0  0  0  0  0  0  0  0  0  0  0  0
    2.1816    1.2563   -0.0345 C   0  0  0  0  0  0  0  0  0  0  0  0
    2.0996   -1.2127    0.0304 C   0  0  0  0  0  0  0  0  0  0  0  0
   -0.2462    2.2381    0.7589 O   0  0  0  0  0  0  0  0  0  0  0  0
   -1.8707    1.4486   -0.5676 O   0  0  0  0  0  0  0  0  0  0  0  0
    0.0063   -2.4212    0.0308 C   0  0  0  0  0  0  0  0  0  0  0  0
    2.0040    1.9616   -1.1916 O   0  0  0  0  0  0  0  0  0  0  0  0
    2.9610    1.6931    0.8135 O   0  0  0  0  0  0  0  0  0  0  0  0
    1.4009   -2.4191    0.0479 C   0  0  0  0  0  0  0  0  0  0  0  0
   -0.9446    3.4959    0.8064 C   0  0  1  0  0  0  0  0  0  0  0  0
    2.6843    3.2281   -1.2792 C   0  0  1  0  0  0  0  0  0  0  0  0
   -0.5212    4.2168    2.0832 C   0  0  1  0  0  0  0  0  0  0  0  0
    2.3271    3.8110   -2.6442 C   0  0  1  0  0  0  0  0  0  0  0  0
   -0.9196    3.4329    3.3252 C   0  0  1  0  0  0  0  0  0  0  0  0
    0.9757    4.4997    2.0867 C   0  0  1  0  0  0  0  0  0  0  0  0
    0.8693    4.2414   -2.6665 C   0  0  1  0  0  0  0  0  0  0  0  0
    3.2946    4.9329   -2.9900 C   0  0  1  0  0  0  0  0  0  0  0  0
   -2.4122    3.4673    3.5768 C   0  0  1  0  0  0  0  0  0  0  0  0
    1.3304    5.7069    1.2566 C   0  0  0  0  0  0  0  0  0  0  0  0
    0.4047    4.6376   -4.0509 C   0  0  1  0  0  0  0  0  0  0  0  0
    3.1565    6.1592   -2.1255 C   0  0  0  0  0  0  0  0  0  0  0  0
   -2.7669    2.7324    4.8527 C   0  0  1  0  0  0  0  0  0  0  0  0
   -1.0830    4.9208   -4.0681 C   0  0  1  0  0  0  0  0  0  0  0  0
   -4.2520    2.7512    5.1065 C   0  0  0  0  0  0  0  0  0  0  0  0
   -1.5505    5.3335   -5.4398 C   0  0  0  0  0  0  0  0  0  0  0  0
   -1.7964   -1.2079   -0.0124 H   0  0  0  0  0  0  0  0  0  0  0  0
    3.2007   -1.2068    0.0444 H   0  0  0  0  0  0  0  0  0  0  0  0
   -0.5445   -3.3740    0.0359 H   0  0  0  0  0  0  0  0  0  0  0  0
    1.9541   -3.3703    0.0734 H   0  0  0  0  0  0  0  0  0  0  0  0
   -0.6398    4.0735   -0.1070 H   0  0  0  0  0  0  0  0  0  0  0  0
   -2.0519    3.3195    0.7911 H   0  0  0  0  0  0  0  0  0  0  0  0
    2.3334    3.8807   -0.4359 H   0  0  0  0  0  0  0  0  0  0  0  0
    3.7867    3.0502   -1.1818 H   0  0  0  0  0  0  0  0  0  0  0  0
   -1.0753    5.1994    2.0853 H   0  0  0  0  0  0  0  0  0  0  0  0
    2.4598    2.9936   -3.4107 H   0  0  0  0  0  0  0  0  0  0  0  0
   -0.5750    2.3710    3.2154 H   0  0  0  0  0  0  0  0  0  0  0  0
   -0.3927    3.8639    4.2181 H   0  0  0  0  0  0  0  0  0  0  0  0
    1.3204    4.6729    3.1409 H   0  0  0  0  0  0  0  0  0  0  0  0
    1.5251    3.5953    1.7057 H   0  0  0  0  0  0  0  0  0  0  0  0
    0.2439    3.3849   -2.2934 H   0  0  0  0  0  0  0  0  0  0  0  0
    0.7149    5.0966   -1.9562 H   0  0  0  0  0  0  0  0  0  0  0  0
    4.3432    4.5382   -2.9079 H   0  0  0  0  0  0  0  0  0  0  0  0
    3.1342    5.2191   -4.0640 H   0  0  0  0  0  0  0  0  0  0  0  0
   -2.7599    4.5316    3.6498 H   0  0  0  0  0  0  0  0  0  0  0  0
   -2.9574    2.9993    2.7153 H   0  0  0  0  0  0  0  0  0  0  0  0
    2.4390    5.8461    1.2368 H   0  0  0  0  0  0  0  0  0  0  0  0
    0.9743    5.5907    0.2032 H   0  0  0  0  0  0  0  0  0  0  0  0
    0.8665    6.6303    1.6809 H   0  0  0  0  0  0  0  0  0  0  0  0
    0.9626    5.5501   -4.3905 H   0  0  0  0  0  0  0  0  0  0  0  0
    0.6374    3.8154   -4.7779 H   0  0  0  0  0  0  0  0  0  0  0  0
    3.9973    6.8665   -2.3274 H   0  0  0  0  0  0  0  0  0  0  0  0
    2.1961    6.6886   -2.3394 H   0  0  0  0  0  0  0  0  0  0  0  0
    3.1729    5.8903   -1.0407 H   0  0  0  0  0  0  0  0  0  0  0  0
   -2.4093    1.6710    4.7833 H   0  0  0  0  0  0  0  0  0  0  0  0
   -2.2306    3.2049    5.7178 H   0  0  0  0  0  0  0  0  0  0  0  0
   -1.6418    4.0049   -3.7388 H   0  0  0  0  0  0  0  0  0  0  0  0
   -1.3169    5.7330   -3.3301 H   0  0  0  0  0  0  0  0  0  0  0  0
   -4.6227    3.8005    5.2015 H   0  0  0  0  0  0  0  0  0  0  0  0
   -4.8020    2.2611    4.2670 H   0  0  0  0  0  0  0  0  0  0  0  0
   -4.4915    2.2052    6.0507 H   0  0  0  0  0  0  0  0  0  0  0  0
   -1.0241    6.2599   -5.7747 H   0  0  0  0  0  0  0  0  0  0  0  0
   -1.3466    4.5267   -6.1848 H   0  0  0  0  0  0  0  0  0  0  0  0
   -2.6487    5.5355   -5.4307 H   0  0  0  0  0  0  0  0  0  0  0  0
  1  2  2  0  0  0  0
  1  3  1  0  0  0  0
  1  4  1  0  0  0  0
  2  5  1  0  0  0  0
  2  6  1  0  0  0  0
  3  7  1  0  0  0  0
  3  8  2  0  0  0  0
  4  9  2  0  0  0  0
  4 29  1  0  0  0  0
  5 10  1  0  0  0  0
  5 11  2  0  0  0  0
  6 12  2  0  0  0  0
  6 30  1  0  0  0  0
  7 13  1  0  0  0  0
  9 12  1  0  0  0  0
  9 31  1  0  0  0  0
 10 14  1  0  0  0  0
 12 32  1  0  0  0  0
 13 15  1  0  0  0  0
 13 33  1  0  0  0  0
 13 34  1  0  0  0  0
 14 16  1  0  0  0  0
 14 35  1  0  0  0  0
 14 36  1  0  0  0  0
 15 17  1  0  0  0  0
 15 18  1  0  0  0  0
 15 37  1  1  0  0  0
 16 19  1  0  0  0  0
 16 20  1  0  0  0  0
 16 38  1  6  0  0  0
 17 21  1  0  0  0  0
 17 39  1  0  0  0  0
 17 40  1  0  0  0  0
 18 22  1  0  0  0  0
 18 41  1  0  0  0  0
 18 42  1  0  0  0  0
 19 23  1  0  0  0  0
 19 43  1  0  0  0  0
 19 44  1  0  0  0  0
 20 24  1  0  0  0  0
 20 45  1  0  0  0  0
 20 46  1  0  0  0  0
 21 25  1  0  0  0  0
 21 47  1  0  0  0  0
 21 48  1  0  0  0  0
 22 49  1  0  0  0  0
 22 50  1  0  0  0  0
 22 51  1  0  0  0  0
 23 26  1  0  0  0  0
 23 52  1  0  0  0  0
 23 53  1  0  0  0  0
 24 54  1  0  0  0  0
 24 55  1  0  0  0  0
 24 56  1  0  0  0  0
 25 27  1  0  0  0  0
 25 57  1  0  0  0  0
 25 58  1  0  0  0  0
 26 28  1  0  0  0  0
 26 59  1  0  0  0  0
 26 60  1  0  0  0  0
 27 61  1  0  0  0  0
 27 62  1  0  0  0  0
 27 63  1  0  0  0  0
 28 64  1  0  0  0  0
 28 65  1  0  0  0  0
 28 66  1  0  0  0  0
M  END