83410.out.mol
  Mrv0541 03111415023D          

 20 20  0  0  0  0            999 V2000
    0.0000    0.0000    0.0000 C   0  0  0  0  0  0  0  0  0  0  0  0
    1.4118    0.0000    0.0000 C   0  0  0  0  0  0  0  0  0  0  0  0
   -0.7832    1.2657    0.0000 N   0  3  0  0  0  0  0  0  0  0  0  0
   -0.7313   -1.2027   -0.0005 C   0  0  0  0  0  0  0  0  0  0  0  0
    2.0744   -1.2445    0.0095 C   0  0  0  0  0  0  0  0  0  0  0  0
    2.1810    1.2659   -0.0094 C   0  0  0  0  0  0  0  0  0  0  0  0
   -0.2352    2.3204    0.1793 O   0  5  0  0  0  0  0  0  0  0  0  0
   -1.9724    1.2012   -0.1770 O   0  0  0  0  0  0  0  0  0  0  0  0
   -0.0536   -2.4147    0.0069 C   0  0  0  0  0  0  0  0  0  0  0  0
    1.3395   -2.4336    0.0136 C   0  0  0  0  0  0  0  0  0  0  0  0
    3.5562   -1.3220    0.0176 C   0  0  0  0  0  0  0  0  0  0  0  0
   -1.8352   -1.1816   -0.0082 H   0  0  0  0  0  0  0  0  0  0  0  0
    1.9853    1.8387    0.9342 H   0  0  0  0  0  0  0  0  0  0  0  0
    3.2807    1.0940   -0.0957 H   0  0  0  0  0  0  0  0  0  0  0  0
    1.8613    1.9112   -0.8681 H   0  0  0  0  0  0  0  0  0  0  0  0
   -0.6203   -3.3581    0.0079 H   0  0  0  0  0  0  0  0  0  0  0  0
    1.8691   -3.3999    0.0217 H   0  0  0  0  0  0  0  0  0  0  0  0
    3.9723   -0.7849    0.9067 H   0  0  0  0  0  0  0  0  0  0  0  0
    3.9029   -2.3842    0.0599 H   0  0  0  0  0  0  0  0  0  0  0  0
    3.9778   -0.8558   -0.9084 H   0  0  0  0  0  0  0  0  0  0  0  0
  1  2  2  0  0  0  0
  1  3  1  0  0  0  0
  1  4  1  0  0  0  0
  2  5  1  0  0  0  0
  2  6  1  0  0  0  0
  3  7  1  0  0  0  0
  3  8  2  0  0  0  0
  4  9  2  0  0  0  0
  4 12  1  0  0  0  0
  5 10  2  0  0  0  0
  5 11  1  0  0  0  0
  6 13  1  0  0  0  0
  6 14  1  0  0  0  0
  6 15  1  0  0  0  0
  9 10  1  0  0  0  0
  9 16  1  0  0  0  0
 10 17  1  0  0  0  0
 11 18  1  0  0  0  0
 11 19  1  0  0  0  0
 11 20  1  0  0  0  0
M  CHG  2   3   1   7  -1
M  END