60207901.out.mol
  Mrv0541 03111415023D          

 39 41  0  0  0  0            999 V2000
    0.0000    0.0000    0.0000 C   0  0  1  0  0  0  0  0  0  0  0  0
    1.5095    0.0000    0.0000 C   0  0  0  0  0  0  0  0  0  0  0  0
   -0.6136    1.4306    0.0000 C   0  0  1  0  0  0  0  0  0  0  0  0
   -0.5421   -0.6753   -1.1351 O   0  0  0  0  0  0  0  0  0  0  0  0
   -0.5271   -0.7008    1.1335 O   0  0  0  0  0  0  0  0  0  0  0  0
    2.2757    0.4099   -1.1015 C   0  0  0  0  0  0  0  0  0  0  0  0
    2.1760   -0.4052    1.1653 C   0  0  0  0  0  0  0  0  0  0  0  0
   -0.2026    2.2440    1.1168 N   0  0  0  0  0  0  0  0  0  0  0  0
   -0.9661   -2.0052   -0.7777 C   0  0  1  0  0  0  0  0  0  0  0  0
   -0.9430   -2.0165    0.7537 C   0  0  1  0  0  0  0  0  0  0  0  0
    3.6756    0.4031   -1.0389 C   0  0  0  0  0  0  0  0  0  0  0  0
    1.5773    0.9407   -2.5581 Cl  0  0  0  0  0  0  0  0  0  0  0  0
    3.5645   -0.4125    1.2414 C   0  0  0  0  0  0  0  0  0  0  0  0
   -0.4995    1.9798    2.4742 C   0  0  0  0  0  0  0  0  0  0  0  0
    0.5386    3.3656    1.0255 N   0  0  0  0  0  0  0  0  0  0  0  0
   -2.3468   -2.2518   -1.3601 C   0  0  1  0  0  0  0  0  0  0  0  0
    4.3136   -0.0090    0.1315 C   0  0  0  0  0  0  0  0  0  0  0  0
    0.0439    2.9431    3.2439 N   0  0  0  0  0  0  0  0  0  0  0  0
    0.6798    3.7878    2.3123 C   0  0  0  0  0  0  0  0  0  0  0  0
   -2.2996   -2.3532   -2.8696 C   0  0  1  0  0  0  0  0  0  0  0  0
    6.0098   -0.0174    0.2060 Cl  0  0  0  0  0  0  0  0  0  0  0  0
   -3.6754   -2.5524   -3.4501 C   0  0  0  0  0  0  0  0  0  0  0  0
   -0.3308    1.9241   -0.9725 H   0  0  0  0  0  0  0  0  0  0  0  0
   -1.7337    1.3135    0.0450 H   0  0  0  0  0  0  0  0  0  0  0  0
    1.5834   -0.7206    2.0409 H   0  0  0  0  0  0  0  0  0  0  0  0
   -0.2141   -2.7174   -1.2119 H   0  0  0  0  0  0  0  0  0  0  0  0
   -0.2049   -2.7496    1.1644 H   0  0  0  0  0  0  0  0  0  0  0  0
   -1.9513   -2.1717    1.2124 H   0  0  0  0  0  0  0  0  0  0  0  0
    4.2673    0.7268   -1.9104 H   0  0  0  0  0  0  0  0  0  0  0  0
    4.0655   -0.7297    2.1686 H   0  0  0  0  0  0  0  0  0  0  0  0
   -1.0722    1.1018    2.7928 H   0  0  0  0  0  0  0  0  0  0  0  0
   -2.7484   -3.2039   -0.9244 H   0  0  0  0  0  0  0  0  0  0  0  0
   -3.0325   -1.4173   -1.0587 H   0  0  0  0  0  0  0  0  0  0  0  0
    1.2271    4.6887    2.6059 H   0  0  0  0  0  0  0  0  0  0  0  0
   -1.8400   -1.4164   -3.2839 H   0  0  0  0  0  0  0  0  0  0  0  0
   -1.6360   -3.2076   -3.1675 H   0  0  0  0  0  0  0  0  0  0  0  0
   -3.6166   -2.6322   -4.5625 H   0  0  0  0  0  0  0  0  0  0  0  0
   -4.1412   -3.4869   -3.0535 H   0  0  0  0  0  0  0  0  0  0  0  0
   -4.3409   -1.6929   -3.1934 H   0  0  0  0  0  0  0  0  0  0  0  0
  1  2  1  6  0  0  0
  1  3  1  0  0  0  0
  1  4  1  0  0  0  0
  1  5  1  0  0  0  0
  2  6  2  0  0  0  0
  2  7  1  0  0  0  0
  3  8  1  0  0  0  0
  3 23  1  0  0  0  0
  3 24  1  0  0  0  0
  4  9  1  0  0  0  0
  5 10  1  0  0  0  0
  6 11  1  0  0  0  0
  6 12  1  0  0  0  0
  7 13  2  0  0  0  0
  7 25  1  0  0  0  0
  8 14  1  0  0  0  0
  8 15  1  0  0  0  0
  9 10  1  0  0  0  0
  9 16  1  0  0  0  0
  9 26  1  6  0  0  0
 10 27  1  0  0  0  0
 10 28  1  0  0  0  0
 11 17  2  0  0  0  0
 11 29  1  0  0  0  0
 13 17  1  0  0  0  0
 13 30  1  0  0  0  0
 14 18  2  0  0  0  0
 14 31  1  0  0  0  0
 15 19  2  0  0  0  0
 16 20  1  0  0  0  0
 16 32  1  0  0  0  0
 16 33  1  0  0  0  0
 17 21  1  0  0  0  0
 18 19  1  0  0  0  0
 19 34  1  0  0  0  0
 20 22  1  0  0  0  0
 20 35  1  0  0  0  0
 20 36  1  0  0  0  0
 22 37  1  0  0  0  0
 22 38  1  0  0  0  0
 22 39  1  0  0  0  0
M  END