83421.out.mol
  Mrv0541 03111415023D          

 17 17  0  0  0  0            999 V2000
    0.0000    0.0000    0.0000 C   0  0  0  0  0  0  0  0  0  0  0  0
    1.4131    0.0000    0.0000 C   0  0  0  0  0  0  0  0  0  0  0  0
   -0.7803    1.2688    0.0000 N   0  3  0  0  0  0  0  0  0  0  0  0
   -0.7339   -1.2004   -0.0005 C   0  0  0  0  0  0  0  0  0  0  0  0
    2.0548   -1.2535    0.0055 C   0  0  0  0  0  0  0  0  0  0  0  0
    2.1874    1.2615   -0.0059 C   0  0  0  0  0  0  0  0  0  0  0  0
   -1.9733    1.2016   -0.1458 O   0  5  0  0  0  0  0  0  0  0  0  0
   -0.2253    2.3239    0.1475 O   0  0  0  0  0  0  0  0  0  0  0  0
   -0.0635   -2.4175    0.0047 C   0  0  0  0  0  0  0  0  0  0  0  0
    1.3289   -2.4479    0.0090 C   0  0  0  0  0  0  0  0  0  0  0  0
    3.7525   -1.3717    0.0114 Cl  0  0  0  0  0  0  0  0  0  0  0  0
   -1.8385   -1.1753   -0.0065 H   0  0  0  0  0  0  0  0  0  0  0  0
    1.9783    1.8424    0.9299 H   0  0  0  0  0  0  0  0  0  0  0  0
    3.2879    1.0816   -0.0716 H   0  0  0  0  0  0  0  0  0  0  0  0
    1.8837    1.9000   -0.8756 H   0  0  0  0  0  0  0  0  0  0  0  0
   -0.6355   -3.3580    0.0048 H   0  0  0  0  0  0  0  0  0  0  0  0
    1.8578   -3.4151    0.0136 H   0  0  0  0  0  0  0  0  0  0  0  0
  1  2  2  0  0  0  0
  1  3  1  0  0  0  0
  1  4  1  0  0  0  0
  2  5  1  0  0  0  0
  2  6  1  0  0  0  0
  3  7  1  0  0  0  0
  3  8  2  0  0  0  0
  4  9  2  0  0  0  0
  4 12  1  0  0  0  0
  5 10  2  0  0  0  0
  5 11  1  0  0  0  0
  6 13  1  0  0  0  0
  6 14  1  0  0  0  0
  6 15  1  0  0  0  0
  9 10  1  0  0  0  0
  9 16  1  0  0  0  0
 10 17  1  0  0  0  0
M  CHG  2   3   1   7  -1
M  END