3209221.out.mol
  Mrv0541 03111415023D          

 14 14  0  0  0  0            999 V2000
    0.0000    0.0000    0.0000 C   0  0  0  0  0  0  0  0  0  0  0  0
    1.4082    0.0000    0.0000 C   0  0  0  0  0  0  0  0  0  0  0  0
   -0.7786    1.2759    0.0000 N   0  3  0  0  0  0  0  0  0  0  0  0
   -0.7220   -1.2029    0.0090 C   0  0  0  0  0  0  0  0  0  0  0  0
    2.0767   -1.2376   -0.0233 C   0  0  0  0  0  0  0  0  0  0  0  0
    2.2877    1.4393    0.0580 Cl  0  0  0  0  0  0  0  0  0  0  0  0
   -1.6471    1.4023    0.8200 O   0  5  0  0  0  0  0  0  0  0  0  0
   -0.5492    2.1085   -0.8305 O   0  0  0  0  0  0  0  0  0  0  0  0
   -0.0368   -2.4145   -0.0156 C   0  0  0  0  0  0  0  0  0  0  0  0
    1.3552   -2.4359   -0.0364 C   0  0  0  0  0  0  0  0  0  0  0  0
    3.7694   -1.3036   -0.0320 Cl  0  0  0  0  0  0  0  0  0  0  0  0
   -1.8249   -1.1885    0.0403 H   0  0  0  0  0  0  0  0  0  0  0  0
   -0.6014   -3.3601   -0.0161 H   0  0  0  0  0  0  0  0  0  0  0  0
    1.8921   -3.3985   -0.0586 H   0  0  0  0  0  0  0  0  0  0  0  0
  1  2  2  0  0  0  0
  1  3  1  0  0  0  0
  1  4  1  0  0  0  0
  2  5  1  0  0  0  0
  2  6  1  0  0  0  0
  3  7  1  0  0  0  0
  3  8  2  0  0  0  0
  4  9  2  0  0  0  0
  4 12  1  0  0  0  0
  5 10  2  0  0  0  0
  5 11  1  0  0  0  0
  9 10  1  0  0  0  0
  9 13  1  0  0  0  0
 10 14  1  0  0  0  0
M  CHG  2   3   1   7  -1
M  END