58140.out.mol
  Mrv0541 03111415023D          

 30 31  0  0  0  0            999 V2000
    0.0000    0.0000    0.0000 C   0  0  0  0  0  0  0  0  0  0  0  0
    1.4577    0.0000    0.0000 C   0  0  0  0  0  0  0  0  0  0  0  0
   -0.7700    1.1848    0.0000 C   0  0  0  0  0  0  0  0  0  0  0  0
   -0.7227   -1.2462   -0.0075 C   0  0  0  0  0  0  0  0  0  0  0  0
    2.1674   -0.4573   -1.1199 C   0  0  0  0  0  0  0  0  0  0  0  0
    2.1701    0.4382    1.1263 C   0  0  0  0  0  0  0  0  0  0  0  0
   -2.1197    1.1769    0.0366 N   0  0  0  0  0  0  0  0  0  0  0  0
   -0.0944    2.5317   -0.0529 C   0  0  1  0  0  0  0  0  0  0  0  0
   -2.0890   -1.2850    0.0505 N   0  0  0  0  0  0  0  0  0  0  0  0
   -0.0374   -2.4464   -0.1365 N   0  0  0  0  0  0  0  0  0  0  0  0
    3.5603   -0.4730   -1.1198 C   0  0  0  0  0  0  0  0  0  0  0  0
    3.5626    0.4244    1.1353 C   0  0  0  0  0  0  0  0  0  0  0  0
   -2.7378   -0.0648    0.0901 C   0  0  0  0  0  0  0  0  0  0  0  0
   -0.3794    3.2493   -1.3493 C   0  0  0  0  0  0  0  0  0  0  0  0
    4.2559   -0.0319    0.0098 C   0  0  0  0  0  0  0  0  0  0  0  0
   -4.1271   -0.0859    0.2584 N   0  0  1  0  0  0  0  0  0  0  0  0
    5.9559   -0.0510    0.0160 Cl  0  0  0  0  0  0  0  0  0  0  0  0
    1.6169   -0.8031   -2.0086 H   0  0  0  0  0  0  0  0  0  0  0  0
    1.6221    0.7979    2.0107 H   0  0  0  0  0  0  0  0  0  0  0  0
   -0.4527    3.1563    0.8101 H   0  0  0  0  0  0  0  0  0  0  0  0
    1.0132    2.3976    0.0678 H   0  0  0  0  0  0  0  0  0  0  0  0
   -0.5261   -3.2891    0.0572 H   0  0  0  0  0  0  0  0  0  0  0  0
    0.9272   -2.4259    0.0982 H   0  0  0  0  0  0  0  0  0  0  0  0
    4.1071   -0.8290   -2.0061 H   0  0  0  0  0  0  0  0  0  0  0  0
    4.1115    0.7708    2.0240 H   0  0  0  0  0  0  0  0  0  0  0  0
   -1.4698    3.4658   -1.4546 H   0  0  0  0  0  0  0  0  0  0  0  0
    0.1779    4.2173   -1.3727 H   0  0  0  0  0  0  0  0  0  0  0  0
   -0.0550    2.6339   -2.2226 H   0  0  0  0  0  0  0  0  0  0  0  0
   -4.6126    0.7516    0.0351 H   0  0  0  0  0  0  0  0  0  0  0  0
   -4.5901   -0.9364    0.0372 H   0  0  0  0  0  0  0  0  0  0  0  0
  1  2  1  0  0  0  0
  1  3  2  0  0  0  0
  1  4  1  0  0  0  0
  2  5  2  0  0  0  0
  2  6  1  0  0  0  0
  3  7  1  0  0  0  0
  3  8  1  0  0  0  0
  4  9  2  0  0  0  0
  4 10  1  0  0  0  0
  5 11  1  0  0  0  0
  5 18  1  0  0  0  0
  6 12  2  0  0  0  0
  6 19  1  0  0  0  0
  7 13  2  0  0  0  0
  8 14  1  0  0  0  0
  8 20  1  0  0  0  0
  8 21  1  0  0  0  0
  9 13  1  0  0  0  0
 10 22  1  0  0  0  0
 10 23  1  0  0  0  0
 11 15  2  0  0  0  0
 11 24  1  0  0  0  0
 12 15  1  0  0  0  0
 12 25  1  0  0  0  0
 13 16  1  0  0  0  0
 14 26  1  0  0  0  0
 14 27  1  0  0  0  0
 14 28  1  0  0  0  0
 15 17  1  0  0  0  0
 16 29  1  0  0  0  0
 16 30  1  0  0  0  0
M  END