67721.out
  Mrv0541 03111415023D          

  8  7  0  0  0  0            999 V2000
   -0.7783    0.0000    0.0001 C   0  0  1  0  0  0  0  0  0  0  0  0
    0.7783    0.0000   -0.0001 C   0  0  2  0  0  0  0  0  0  0  0  0
   -1.3714    0.0000   -1.6568 Cl  0  0  0  0  0  0  0  0  0  0  0  0
   -1.3712   -1.4349    0.8285 Cl  0  0  0  0  0  0  0  0  0  0  0  0
   -1.3712    1.4349    0.8285 Cl  0  0  0  0  0  0  0  0  0  0  0  0
    1.3714    0.0000    1.6568 Cl  0  0  0  0  0  0  0  0  0  0  0  0
    1.3712    1.4349   -0.8285 Cl  0  0  0  0  0  0  0  0  0  0  0  0
    1.3712   -1.4349   -0.8285 Cl  0  0  0  0  0  0  0  0  0  0  0  0
  1  4  1  0  0  0  0
  1  5  1  0  0  0  0
  2  1  1  0  0  0  0
  2  6  1  0  0  0  0
  3  1  1  0  0  0  0
  7  2  1  0  0  0  0
  8  2  1  0  0  0  0
M  END