260946.out.mol
  Mrv0541 03111415023D          

 23 25  0  0  0  0            999 V2000
    0.0000    0.0000    0.0000 C   0  0  0  0  0  0  0  0  0  0  0  0
    1.4416    0.0000    0.0000 C   0  0  0  0  0  0  0  0  0  0  0  0
   -0.6615    1.2327    0.0000 C   0  0  0  0  0  0  0  0  0  0  0  0
   -0.7041   -1.2442   -0.0006 C   0  0  0  0  0  0  0  0  0  0  0  0
    2.1709    1.1415    0.0005 N   0  0  0  0  0  0  0  0  0  0  0  0
    2.1155   -1.2807    0.0006 C   0  0  0  0  0  0  0  0  0  0  0  0
    0.0779    2.4202   -0.0005 C   0  0  0  0  0  0  0  0  0  0  0  0
   -0.0261   -2.4273   -0.0006 C   0  0  0  0  0  0  0  0  0  0  0  0
    1.5165    2.3275    0.0016 C   0  0  0  0  0  0  0  0  0  0  0  0
    1.3998   -2.4401    0.0006 C   0  0  0  0  0  0  0  0  0  0  0  0
   -0.5447    3.7071    0.0000 C   0  0  0  0  0  0  0  0  0  0  0  0
    2.2714    3.5622    0.0027 C   0  0  0  0  0  0  0  0  0  0  0  0
    0.2080    4.8442   -0.0001 C   0  0  0  0  0  0  0  0  0  0  0  0
    1.6318    4.7652    0.0033 C   0  0  0  0  0  0  0  0  0  0  0  0
   -1.7619    1.2681   -0.0004 H   0  0  0  0  0  0  0  0  0  0  0  0
   -1.8044   -1.2164   -0.0010 H   0  0  0  0  0  0  0  0  0  0  0  0
    3.2170   -1.2912    0.0001 H   0  0  0  0  0  0  0  0  0  0  0  0
   -0.5616   -3.3882   -0.0006 H   0  0  0  0  0  0  0  0  0  0  0  0
    1.9134   -3.4139    0.0006 H   0  0  0  0  0  0  0  0  0  0  0  0
   -1.6445    3.7502    0.0004 H   0  0  0  0  0  0  0  0  0  0  0  0
    3.3713    3.5018    0.0022 H   0  0  0  0  0  0  0  0  0  0  0  0
   -0.2645    5.8376    0.0008 H   0  0  0  0  0  0  0  0  0  0  0  0
    2.2070    5.7040    0.0037 H   0  0  0  0  0  0  0  0  0  0  0  0
  1  2  2  0  0  0  0
  1  3  1  0  0  0  0
  1  4  1  0  0  0  0
  2  5  1  0  0  0  0
  2  6  1  0  0  0  0
  3  7  2  0  0  0  0
  3 15  1  0  0  0  0
  4  8  2  0  0  0  0
  4 16  1  0  0  0  0
  5  9  2  0  0  0  0
  6 10  2  0  0  0  0
  6 17  1  0  0  0  0
  7  9  1  0  0  0  0
  7 11  1  0  0  0  0
  8 10  1  0  0  0  0
  8 18  1  0  0  0  0
  9 12  1  0  0  0  0
 10 19  1  0  0  0  0
 11 13  2  0  0  0  0
 11 20  1  0  0  0  0
 12 14  2  0  0  0  0
 12 21  1  0  0  0  0
 13 14  1  0  0  0  0
 13 22  1  0  0  0  0
 14 23  1  0  0  0  0
M  END