611063.out.mol
  Mrv0541 03111415023D          

 14 14  0  0  0  0            999 V2000
    0.0000    0.0000    0.0000 C   0  0  0  0  0  0  0  0  0  0  0  0
    1.4068    0.0000    0.0000 C   0  0  0  0  0  0  0  0  0  0  0  0
   -0.7088    1.2135    0.0000 C   0  0  0  0  0  0  0  0  0  0  0  0
   -0.7901   -1.2658    0.0097 N   0  3  0  0  0  0  0  0  0  0  0  0
    2.0918    1.2212   -0.0328 C   0  0  0  0  0  0  0  0  0  0  0  0
    2.3110   -1.4258    0.0716 Cl  0  0  0  0  0  0  0  0  0  0  0  0
   -0.0212    2.4211   -0.0341 C   0  0  0  0  0  0  0  0  0  0  0  0
   -1.7186   -1.3407    0.7688 O   0  5  0  0  0  0  0  0  0  0  0  0
   -0.5108   -2.1464   -0.7536 O   0  0  0  0  0  0  0  0  0  0  0  0
    1.3785    2.4216   -0.0561 C   0  0  0  0  0  0  0  0  0  0  0  0
    2.2186    3.8920   -0.1039 Cl  0  0  0  0  0  0  0  0  0  0  0  0
   -1.8124    1.2088    0.0322 H   0  0  0  0  0  0  0  0  0  0  0  0
    3.1947    1.2283   -0.0377 H   0  0  0  0  0  0  0  0  0  0  0  0
   -0.5806    3.3701   -0.0411 H   0  0  0  0  0  0  0  0  0  0  0  0
  1  2  2  0  0  0  0
  1  3  1  0  0  0  0
  1  4  1  0  0  0  0
  2  5  1  0  0  0  0
  2  6  1  0  0  0  0
  3  7  2  0  0  0  0
  3 12  1  0  0  0  0
  4  8  1  0  0  0  0
  4  9  2  0  0  0  0
  5 10  2  0  0  0  0
  5 13  1  0  0  0  0
  7 10  1  0  0  0  0
  7 14  1  0  0  0  0
 10 11  1  0  0  0  0
M  CHG  2   4   1   8  -1
M  END