92693.out.mol
  Mrv0541 03111415023D          

 23 24  0  0  0  0            999 V2000
    0.0000    0.0000    0.0000 C   0  0  0  0  0  0  0  0  0  0  0  0
    1.4610    0.0000    0.0000 C   0  0  0  0  0  0  0  0  0  0  0  0
   -0.7101    1.2082    0.0000 C   0  0  0  0  0  0  0  0  0  0  0  0
   -0.7102   -1.2111    0.0005 C   0  0  0  0  0  0  0  0  0  0  0  0
    2.1719    0.9186   -0.7860 C   0  0  0  0  0  0  0  0  0  0  0  0
    2.1716   -0.9186    0.7863 C   0  0  0  0  0  0  0  0  0  0  0  0
   -2.1018    1.2153    0.0023 C   0  0  0  0  0  0  0  0  0  0  0  0
   -2.0994   -1.2245    0.0000 C   0  0  0  0  0  0  0  0  0  0  0  0
    3.5652    0.9162   -0.7847 C   0  0  0  0  0  0  0  0  0  0  0  0
    3.5649   -0.9164    0.7851 C   0  0  0  0  0  0  0  0  0  0  0  0
   -2.7944   -0.0034    0.0014 C   0  0  0  0  0  0  0  0  0  0  0  0
    4.2646   -0.0008   -0.0005 C   0  0  0  0  0  0  0  0  0  0  0  0
   -4.1682   -0.0784    0.0030 O   0  0  0  0  0  0  0  0  0  0  0  0
   -0.1621    2.1630    0.0059 H   0  0  0  0  0  0  0  0  0  0  0  0
   -0.1587   -2.1642   -0.0060 H   0  0  0  0  0  0  0  0  0  0  0  0
    1.6244    1.6385   -1.4126 H   0  0  0  0  0  0  0  0  0  0  0  0
    1.6239   -1.6390    1.4122 H   0  0  0  0  0  0  0  0  0  0  0  0
   -2.6523    2.1663    0.0063 H   0  0  0  0  0  0  0  0  0  0  0  0
   -2.6615   -2.1687   -0.0032 H   0  0  0  0  0  0  0  0  0  0  0  0
    4.1136    1.6386   -1.4069 H   0  0  0  0  0  0  0  0  0  0  0  0
    4.1131   -1.6389    1.4074 H   0  0  0  0  0  0  0  0  0  0  0  0
    5.3642   -0.0009   -0.0004 H   0  0  0  0  0  0  0  0  0  0  0  0
   -4.5161    0.8251    0.0044 H   0  0  0  0  0  0  0  0  0  0  0  0
  1  2  1  0  0  0  0
  1  3  2  0  0  0  0
  1  4  1  0  0  0  0
  2  5  2  0  0  0  0
  2  6  1  0  0  0  0
  3  7  1  0  0  0  0
  3 14  1  0  0  0  0
  4  8  2  0  0  0  0
  4 15  1  0  0  0  0
  5  9  1  0  0  0  0
  5 16  1  0  0  0  0
  6 10  2  0  0  0  0
  6 17  1  0  0  0  0
  7 11  2  0  0  0  0
  7 18  1  0  0  0  0
  8 11  1  0  0  0  0
  8 19  1  0  0  0  0
  9 12  2  0  0  0  0
  9 20  1  0  0  0  0
 10 12  1  0  0  0  0
 10 21  1  0  0  0  0
 11 13  1  0  0  0  0
 12 22  1  0  0  0  0
 13 23  1  0  0  0  0
M  END