114261.out.mol
  Mrv0541 03111415023D          

 30 30  0  0  0  0            999 V2000
    0.0000    0.0000    0.0000 C   0  0  0  0  0  0  0  0  0  0  0  0
    1.4107    0.0000    0.0000 C   0  0  0  0  0  0  0  0  0  0  0  0
   -0.7217    1.1898    0.0000 O   0  0  0  0  0  0  0  0  0  0  0  0
   -0.7122   -1.1957    0.1440 C   0  0  0  0  0  0  0  0  0  0  0  0
    2.0965   -1.2139    0.1497 C   0  0  0  0  0  0  0  0  0  0  0  0
    2.0410    1.2229   -0.0747 O   0  0  0  0  0  0  0  0  0  0  0  0
   -0.7660    1.9099   -1.1926 C   0  0  0  0  0  0  0  0  0  0  0  0
   -0.0148   -2.3927    0.2939 C   0  0  0  0  0  0  0  0  0  0  0  0
    1.3803   -2.3994    0.2945 C   0  0  0  0  0  0  0  0  0  0  0  0
    3.2265    1.2648   -0.9048 C   0  0  1  0  0  0  0  0  0  0  0  0
   -1.5514    3.0415   -1.0685 N   0  0  0  0  0  0  0  0  0  0  0  0
   -0.1979    1.4709   -2.2017 O   0  0  0  0  0  0  0  0  0  0  0  0
    3.0461    2.4451   -1.8412 C   0  0  0  0  0  0  0  0  0  0  0  0
    4.4298    1.4406    0.0006 C   0  0  0  0  0  0  0  0  0  0  0  0
   -1.4624    4.0731   -2.0581 C   0  0  0  0  0  0  0  0  0  0  0  0
   -1.8116   -1.1752    0.1411 H   0  0  0  0  0  0  0  0  0  0  0  0
    3.1960   -1.2217    0.1586 H   0  0  0  0  0  0  0  0  0  0  0  0
   -0.5698   -3.3351    0.4079 H   0  0  0  0  0  0  0  0  0  0  0  0
    1.9229   -3.3494    0.4121 H   0  0  0  0  0  0  0  0  0  0  0  0
    3.3196    0.3171   -1.5029 H   0  0  0  0  0  0  0  0  0  0  0  0
   -1.7943    3.3152   -0.1430 H   0  0  0  0  0  0  0  0  0  0  0  0
    2.0976    2.3244   -2.4212 H   0  0  0  0  0  0  0  0  0  0  0  0
    2.9910    3.3970   -1.2619 H   0  0  0  0  0  0  0  0  0  0  0  0
    3.9095    2.4955   -2.5453 H   0  0  0  0  0  0  0  0  0  0  0  0
    4.5626    0.5440    0.6517 H   0  0  0  0  0  0  0  0  0  0  0  0
    5.3464    1.5815   -0.6196 H   0  0  0  0  0  0  0  0  0  0  0  0
    4.2931    2.3337    0.6562 H   0  0  0  0  0  0  0  0  0  0  0  0
   -2.4563    4.5923   -2.1130 H   0  0  0  0  0  0  0  0  0  0  0  0
   -0.6711    4.8298   -1.8029 H   0  0  0  0  0  0  0  0  0  0  0  0
   -1.2218    3.6226   -3.0581 H   0  0  0  0  0  0  0  0  0  0  0  0
  1  2  2  0  0  0  0
  1  3  1  0  0  0  0
  1  4  1  0  0  0  0
  2  5  1  0  0  0  0
  2  6  1  0  0  0  0
  3  7  1  0  0  0  0
  4  8  2  0  0  0  0
  4 16  1  0  0  0  0
  5  9  2  0  0  0  0
  5 17  1  0  0  0  0
  6 10  1  0  0  0  0
  7 11  1  0  0  0  0
  7 12  2  0  0  0  0
  8  9  1  0  0  0  0
  8 18  1  0  0  0  0
  9 19  1  0  0  0  0
 10 13  1  0  0  0  0
 10 14  1  0  0  0  0
 10 20  1  0  0  0  0
 11 15  1  0  0  0  0
 11 21  1  0  0  0  0
 13 22  1  0  0  0  0
 13 23  1  0  0  0  0
 13 24  1  0  0  0  0
 14 25  1  0  0  0  0
 14 26  1  0  0  0  0
 14 27  1  0  0  0  0
 15 28  1  0  0  0  0
 15 29  1  0  0  0  0
 15 30  1  0  0  0  0
M  END