205390.out.mol
  Mrv0541 03111415023D          

 27 30  0  0  0  0            999 V2000
    0.0000    0.0000    0.0000 C   0  0  0  0  0  0  0  0  0  0  0  0
    1.4137    0.0000    0.0000 C   0  0  0  0  0  0  0  0  0  0  0  0
   -0.5260    1.3010    0.0000 O   0  0  0  0  0  0  0  0  0  0  0  0
    1.8163    1.3937    0.0006 C   0  0  0  0  0  0  0  0  0  0  0  0
    0.5962    2.1452    0.0006 C   0  0  0  0  0  0  0  0  0  0  0  0
    2.1038   -1.2251    0.0005 C   0  0  0  0  0  0  0  0  0  0  0  0
    1.3789   -2.3949    0.0005 C   0  0  0  0  0  0  0  0  0  0  0  0
    3.0266    2.0754    0.0014 C   0  0  0  0  0  0  0  0  0  0  0  0
    0.5632    3.5326    0.0013 C   0  0  0  0  0  0  0  0  0  0  0  0
    3.0028    3.4716    0.0024 C   0  0  0  0  0  0  0  0  0  0  0  0
    1.7986    4.1846    0.0024 C   0  0  0  0  0  0  0  0  0  0  0  0
   -0.0463   -2.4013    0.0005 C   0  0  0  0  0  0  0  0  0  0  0  0
   -0.7756   -1.1781   -0.0005 C   0  0  0  0  0  0  0  0  0  0  0  0
   -2.1937   -1.1948    0.0000 C   0  0  0  0  0  0  0  0  0  0  0  0
   -2.8678   -2.3919   -0.0001 C   0  0  0  0  0  0  0  0  0  0  0  0
   -2.1527   -3.6134   -0.0001 C   0  0  0  0  0  0  0  0  0  0  0  0
   -0.7788   -3.6198    0.0005 C   0  0  0  0  0  0  0  0  0  0  0  0
    3.2031   -1.2329    0.0001 H   0  0  0  0  0  0  0  0  0  0  0  0
    1.8985   -3.3653    0.0014 H   0  0  0  0  0  0  0  0  0  0  0  0
    3.9795    1.5281    0.0012 H   0  0  0  0  0  0  0  0  0  0  0  0
   -0.3852    4.0844    0.0019 H   0  0  0  0  0  0  0  0  0  0  0  0
    3.9538    4.0253    0.0034 H   0  0  0  0  0  0  0  0  0  0  0  0
    1.8224    5.2849    0.0034 H   0  0  0  0  0  0  0  0  0  0  0  0
   -2.7286   -0.2327    0.0004 H   0  0  0  0  0  0  0  0  0  0  0  0
   -3.9675   -2.4154    0.0008 H   0  0  0  0  0  0  0  0  0  0  0  0
   -2.7149   -4.5593   -0.0005 H   0  0  0  0  0  0  0  0  0  0  0  0
   -0.2206   -4.5682    0.0001 H   0  0  0  0  0  0  0  0  0  0  0  0
  1  2  2  0  0  0  0
  1  3  1  0  0  0  0
  1 13  1  0  0  0  0
  2  4  1  0  0  0  0
  2  6  1  0  0  0  0
  3  5  1  0  0  0  0
  4  5  2  0  0  0  0
  4  8  1  0  0  0  0
  5  9  1  0  0  0  0
  6  7  2  0  0  0  0
  6 18  1  0  0  0  0
  7 12  1  0  0  0  0
  7 19  1  0  0  0  0
  8 10  2  0  0  0  0
  8 20  1  0  0  0  0
  9 11  2  0  0  0  0
  9 21  1  0  0  0  0
 10 11  1  0  0  0  0
 10 22  1  0  0  0  0
 11 23  1  0  0  0  0
 12 13  2  0  0  0  0
 12 17  1  0  0  0  0
 13 14  1  0  0  0  0
 14 15  2  0  0  0  0
 14 24  1  0  0  0  0
 15 16  1  0  0  0  0
 15 25  1  0  0  0  0
 16 17  2  0  0  0  0
 16 26  1  0  0  0  0
 17 27  1  0  0  0  0
M  END