95829.out.mol
  Mrv0541 03111415023D          

 14 14  0  0  0  0            999 V2000
    0.0000    0.0000    0.0000 C   0  0  0  0  0  0  0  0  0  0  0  0
    1.4193    0.0000    0.0000 C   0  0  0  0  0  0  0  0  0  0  0  0
   -0.6614    1.2532    0.0000 C   0  0  0  0  0  0  0  0  0  0  0  0
   -0.7327   -1.1790    0.0751 N   0  0  1  0  0  0  0  0  0  0  0  0
    2.1359    1.1963    0.0205 C   0  0  0  0  0  0  0  0  0  0  0  0
    2.2804   -1.4699   -0.0237 Cl  0  0  0  0  0  0  0  0  0  0  0  0
    0.0748    2.4337    0.0190 C   0  0  0  0  0  0  0  0  0  0  0  0
    1.4730    2.4191    0.0305 C   0  0  0  0  0  0  0  0  0  0  0  0
   -0.7467    3.9236    0.0245 Cl  0  0  0  0  0  0  0  0  0  0  0  0
   -1.7618    1.2922   -0.0044 H   0  0  0  0  0  0  0  0  0  0  0  0
   -1.6746   -1.1154   -0.2366 H   0  0  0  0  0  0  0  0  0  0  0  0
   -0.2572   -2.0064   -0.2066 H   0  0  0  0  0  0  0  0  0  0  0  0
    3.2375    1.1735    0.0274 H   0  0  0  0  0  0  0  0  0  0  0  0
    2.0439    3.3585    0.0471 H   0  0  0  0  0  0  0  0  0  0  0  0
  1  2  2  0  0  0  0
  1  3  1  0  0  0  0
  1  4  1  0  0  0  0
  2  5  1  0  0  0  0
  2  6  1  0  0  0  0
  3  7  2  0  0  0  0
  3 10  1  0  0  0  0
  4 11  1  0  0  0  0
  4 12  1  0  0  0  0
  5  8  2  0  0  0  0
  5 13  1  0  0  0  0
  7  8  1  0  0  0  0
  7  9  1  0  0  0  0
  8 14  1  0  0  0  0
M  END