636306.out.mol
  Mrv0541 03111415023D          

 14 14  0  0  0  0            999 V2000
    0.0000    0.0000    0.0000 C   0  0  0  0  0  0  0  0  0  0  0  0
    1.4203    0.0000    0.0000 C   0  0  0  0  0  0  0  0  0  0  0  0
   -0.6580    1.2538    0.0000 C   0  0  0  0  0  0  0  0  0  0  0  0
   -0.7314   -1.1767    0.0733 N   0  0  1  0  0  0  0  0  0  0  0  0
    2.1382    1.1927    0.0192 C   0  0  0  0  0  0  0  0  0  0  0  0
    2.2813   -1.4686   -0.0220 Cl  0  0  0  0  0  0  0  0  0  0  0  0
    0.0679    2.4416    0.0181 C   0  0  0  0  0  0  0  0  0  0  0  0
    1.4707    2.4194    0.0286 C   0  0  0  0  0  0  0  0  0  0  0  0
   -0.7799    3.9116    0.0232 Cl  0  0  0  0  0  0  0  0  0  0  0  0
    2.3768    3.8520    0.0513 Cl  0  0  0  0  0  0  0  0  0  0  0  0
   -1.7590    1.2930   -0.0040 H   0  0  0  0  0  0  0  0  0  0  0  0
   -1.6787   -1.1161   -0.2203 H   0  0  0  0  0  0  0  0  0  0  0  0
   -0.2583   -2.0093   -0.1950 H   0  0  0  0  0  0  0  0  0  0  0  0
    3.2409    1.1690    0.0255 H   0  0  0  0  0  0  0  0  0  0  0  0
  1  2  2  0  0  0  0
  1  3  1  0  0  0  0
  1  4  1  0  0  0  0
  2  5  1  0  0  0  0
  2  6  1  0  0  0  0
  3  7  2  0  0  0  0
  3 11  1  0  0  0  0
  4 12  1  0  0  0  0
  4 13  1  0  0  0  0
  5  8  2  0  0  0  0
  5 14  1  0  0  0  0
  7  8  1  0  0  0  0
  7  9  1  0  0  0  0
  8 10  1  0  0  0  0
M  END