105679.out.mol
  Mrv0541 03111415023D          

 19 19  0  0  0  0            999 V2000
    0.0000    0.0000    0.0000 C   0  0  0  0  0  0  0  0  0  0  0  0
    1.4110    0.0000    0.0000 C   0  0  0  0  0  0  0  0  0  0  0  0
   -0.6599    1.2287    0.0000 C   0  0  0  0  0  0  0  0  0  0  0  0
   -0.7422   -1.2793   -0.0006 C   0  0  0  0  0  0  0  0  0  0  0  0
    2.1324    1.2001   -0.0007 C   0  0  0  0  0  0  0  0  0  0  0  0
    2.0294   -1.2313   -0.0006 O   0  0  0  0  0  0  0  0  0  0  0  0
    0.0490    2.4365    0.0007 C   0  0  0  0  0  0  0  0  0  0  0  0
    1.4468    2.4119   -0.0004 C   0  0  0  0  0  0  0  0  0  0  0  0
   -0.6814    3.7247    0.0156 C   0  0  0  0  0  0  0  0  0  0  0  0
   -1.7609    1.2483   -0.0004 H   0  0  0  0  0  0  0  0  0  0  0  0
   -0.4818   -1.8721    0.9124 H   0  0  0  0  0  0  0  0  0  0  0  0
   -1.8460   -1.1106   -0.0186 H   0  0  0  0  0  0  0  0  0  0  0  0
   -0.4543   -1.8878   -0.8946 H   0  0  0  0  0  0  0  0  0  0  0  0
    3.2313    1.1841   -0.0011 H   0  0  0  0  0  0  0  0  0  0  0  0
    2.9858   -1.0816   -0.0022 H   0  0  0  0  0  0  0  0  0  0  0  0
    2.0119    3.3560   -0.0014 H   0  0  0  0  0  0  0  0  0  0  0  0
   -0.9859    3.9802    1.0620 H   0  0  0  0  0  0  0  0  0  0  0  0
   -0.0428    4.5545   -0.3751 H   0  0  0  0  0  0  0  0  0  0  0  0
   -1.6052    3.6652   -0.6114 H   0  0  0  0  0  0  0  0  0  0  0  0
  1  2  2  0  0  0  0
  1  3  1  0  0  0  0
  1  4  1  0  0  0  0
  2  5  1  0  0  0  0
  2  6  1  0  0  0  0
  3  7  2  0  0  0  0
  3 10  1  0  0  0  0
  4 11  1  0  0  0  0
  4 12  1  0  0  0  0
  4 13  1  0  0  0  0
  5  8  2  0  0  0  0
  5 14  1  0  0  0  0
  6 15  1  0  0  0  0
  7  8  1  0  0  0  0
  7  9  1  0  0  0  0
  8 16  1  0  0  0  0
  9 17  1  0  0  0  0
  9 18  1  0  0  0  0
  9 19  1  0  0  0  0
M  END