120832.out.mol
  Mrv0541 03111415023D          

 13 13  0  0  0  0            999 V2000
    0.0000    0.0000    0.0000 C   0  0  0  0  0  0  0  0  0  0  0  0
    1.4063    0.0000    0.0000 C   0  0  0  0  0  0  0  0  0  0  0  0
   -0.6979    1.2113    0.0000 C   0  0  0  0  0  0  0  0  0  0  0  0
   -0.8747   -1.4592   -0.0007 Cl  0  0  0  0  0  0  0  0  0  0  0  0
    2.1096    1.2193   -0.0005 C   0  0  0  0  0  0  0  0  0  0  0  0
    2.1788   -1.1335    0.0005 O   0  0  0  0  0  0  0  0  0  0  0  0
    0.0109    2.4132   -0.0005 C   0  0  0  0  0  0  0  0  0  0  0  0
    1.4120    2.4190   -0.0005 C   0  0  0  0  0  0  0  0  0  0  0  0
   -0.8367    3.8857   -0.0012 Cl  0  0  0  0  0  0  0  0  0  0  0  0
   -1.7998    1.2119   -0.0004 H   0  0  0  0  0  0  0  0  0  0  0  0
    3.2094    1.2001   -0.0010 H   0  0  0  0  0  0  0  0  0  0  0  0
    1.5920   -1.9068    0.0013 H   0  0  0  0  0  0  0  0  0  0  0  0
    1.9621    3.3730   -0.0005 H   0  0  0  0  0  0  0  0  0  0  0  0
  1  2  2  0  0  0  0
  1  3  1  0  0  0  0
  1  4  1  0  0  0  0
  2  5  1  0  0  0  0
  2  6  1  0  0  0  0
  3  7  2  0  0  0  0
  3 10  1  0  0  0  0
  5  8  2  0  0  0  0
  5 11  1  0  0  0  0
  6 12  1  0  0  0  0
  7  8  1  0  0  0  0
  7  9  1  0  0  0  0
  8 13  1  0  0  0  0
M  END