534521.out.mol
  Mrv0541 03111415023D          

 20 20  0  0  0  0            999 V2000
    0.0000    0.0000    0.0000 C   0  0  0  0  0  0  0  0  0  0  0  0
    1.4096    0.0000    0.0000 C   0  0  0  0  0  0  0  0  0  0  0  0
   -0.7129    1.2223    0.0000 C   0  0  0  0  0  0  0  0  0  0  0  0
   -0.6843   -1.3121   -0.0006 N   0  3  0  0  0  0  0  0  0  0  0  0
    2.0909    1.2150    0.0005 C   0  0  0  0  0  0  0  0  0  0  0  0
    0.0086    2.4531    0.0006 C   0  0  0  0  0  0  0  0  0  0  0  0
   -2.0598    1.3723   -0.0005 O   0  0  0  0  0  0  0  0  0  0  0  0
   -0.0277   -2.3144   -0.0015 O   0  5  0  0  0  0  0  0  0  0  0  0
   -1.8909   -1.3413   -0.0001 O   0  0  0  0  0  0  0  0  0  0  0  0
    1.3922    2.4418    0.0016 C   0  0  0  0  0  0  0  0  0  0  0  0
    3.5769    1.2247    0.0011 N   0  3  0  0  0  0  0  0  0  0  0  0
   -0.7499    3.7257    0.0011 C   0  0  0  0  0  0  0  0  0  0  0  0
    4.1456    2.2827    0.0021 O   0  5  0  0  0  0  0  0  0  0  0  0
    4.1629    0.1767    0.0016 O   0  0  0  0  0  0  0  0  0  0  0  0
    1.9660   -0.9606   -0.0004 H   0  0  0  0  0  0  0  0  0  0  0  0
   -2.5305    0.5196   -0.0005 H   0  0  0  0  0  0  0  0  0  0  0  0
    1.9561    3.3937    0.0016 H   0  0  0  0  0  0  0  0  0  0  0  0
   -1.4084    3.7765    0.9052 H   0  0  0  0  0  0  0  0  0  0  0  0
   -0.0640    4.6071    0.0020 H   0  0  0  0  0  0  0  0  0  0  0  0
   -1.4079    3.7777   -0.9032 H   0  0  0  0  0  0  0  0  0  0  0  0
  1  2  2  0  0  0  0
  1  3  1  0  0  0  0
  1  4  1  0  0  0  0
  2  5  1  0  0  0  0
  2 15  1  0  0  0  0
  3  6  2  0  0  0  0
  3  7  1  0  0  0  0
  4  8  1  0  0  0  0
  4  9  2  0  0  0  0
  5 10  2  0  0  0  0
  5 11  1  0  0  0  0
  6 10  1  0  0  0  0
  6 12  1  0  0  0  0
  7 16  1  0  0  0  0
 10 17  1  0  0  0  0
 11 13  1  0  0  0  0
 11 14  2  0  0  0  0
 12 18  1  0  0  0  0
 12 19  1  0  0  0  0
 12 20  1  0  0  0  0
M  CHG  4   4   1   8  -1  11   1  13  -1
M  END