95761.out.mol
  Mrv0541 03111415023D          

 14 14  0  0  0  0            999 V2000
    0.0000    0.0000    0.0000 C   0  0  0  0  0  0  0  0  0  0  0  0
    1.4014    0.0000    0.0000 C   0  0  0  0  0  0  0  0  0  0  0  0
   -0.7091    1.2006    0.0000 C   0  0  0  0  0  0  0  0  0  0  0  0
   -0.8727   -1.4570   -0.0048 Cl  0  0  0  0  0  0  0  0  0  0  0  0
    2.0862    1.2202    0.0011 C   0  0  0  0  0  0  0  0  0  0  0  0
    2.2858   -1.4476   -0.0034 Cl  0  0  0  0  0  0  0  0  0  0  0  0
   -0.0220    2.4361    0.0083 C   0  0  0  0  0  0  0  0  0  0  0  0
    1.3943    2.4219    0.0009 C   0  0  0  0  0  0  0  0  0  0  0  0
   -0.7229    3.6379    0.1012 N   0  0  2  0  0  0  0  0  0  0  0  0
   -1.8100    1.1786    0.0038 H   0  0  0  0  0  0  0  0  0  0  0  0
    3.1880    1.2267    0.0007 H   0  0  0  0  0  0  0  0  0  0  0  0
    1.9568    3.3676    0.0049 H   0  0  0  0  0  0  0  0  0  0  0  0
   -1.6698    3.5994   -0.2012 H   0  0  0  0  0  0  0  0  0  0  0  0
   -0.2275    4.4397   -0.2170 H   0  0  0  0  0  0  0  0  0  0  0  0
  1  2  2  0  0  0  0
  1  3  1  0  0  0  0
  1  4  1  0  0  0  0
  2  5  1  0  0  0  0
  2  6  1  0  0  0  0
  3  7  2  0  0  0  0
  3 10  1  0  0  0  0
  5  8  2  0  0  0  0
  5 11  1  0  0  0  0
  7  8  1  0  0  0  0
  7  9  1  0  0  0  0
  8 12  1  0  0  0  0
  9 13  1  0  0  0  0
  9 14  1  0  0  0  0
M  END