59507.out.mol
  Mrv0541 03111415023D          

 16 16  0  0  0  0            999 V2000
    0.0000    0.0000    0.0000 C   0  0  0  0  0  0  0  0  0  0  0  0
    1.4061    0.0000    0.0000 C   0  0  0  0  0  0  0  0  0  0  0  0
   -0.6769    1.2214    0.0000 C   0  0  0  0  0  0  0  0  0  0  0  0
   -0.7675   -1.2669   -0.0006 C   0  0  0  0  0  0  0  0  0  0  0  0
    2.1245    1.1986    0.0005 C   0  0  0  0  0  0  0  0  0  0  0  0
    2.2697   -1.4676   -0.0007 Cl  0  0  0  0  0  0  0  0  0  0  0  0
    0.0500    2.4217    0.0005 C   0  0  0  0  0  0  0  0  0  0  0  0
    1.4517    2.4167    0.0005 C   0  0  0  0  0  0  0  0  0  0  0  0
   -0.6885    3.5827    0.0011 O   0  0  0  0  0  0  0  0  0  0  0  0
   -1.7760    1.2564   -0.0004 H   0  0  0  0  0  0  0  0  0  0  0  0
   -0.5129   -1.8733    0.9052 H   0  0  0  0  0  0  0  0  0  0  0  0
   -1.8681   -1.0737    0.0000 H   0  0  0  0  0  0  0  0  0  0  0  0
   -0.5136   -1.8721   -0.9072 H   0  0  0  0  0  0  0  0  0  0  0  0
    3.2255    1.1834    0.0010 H   0  0  0  0  0  0  0  0  0  0  0  0
    2.0133    3.3610    0.0014 H   0  0  0  0  0  0  0  0  0  0  0  0
   -0.0713    4.3288    0.0018 H   0  0  0  0  0  0  0  0  0  0  0  0
  1  2  2  0  0  0  0
  1  3  1  0  0  0  0
  1  4  1  0  0  0  0
  2  5  1  0  0  0  0
  2  6  1  0  0  0  0
  3  7  2  0  0  0  0
  3 10  1  0  0  0  0
  4 11  1  0  0  0  0
  4 12  1  0  0  0  0
  4 13  1  0  0  0  0
  5  8  2  0  0  0  0
  5 14  1  0  0  0  0
  7  8  1  0  0  0  0
  7  9  1  0  0  0  0
  8 15  1  0  0  0  0
  9 16  1  0  0  0  0
M  END