95954.out.mol
  Mrv0541 03111415023D          

 13 13  0  0  0  0            999 V2000
    0.0000    0.0000    0.0000 C   0  0  0  0  0  0  0  0  0  0  0  0
    1.4070    0.0000    0.0000 C   0  0  0  0  0  0  0  0  0  0  0  0
   -0.7050    1.2156    0.0000 C   0  0  0  0  0  0  0  0  0  0  0  0
   -0.7728   -1.1327   -0.0005 O   0  0  0  0  0  0  0  0  0  0  0  0
    2.1008    1.2116    0.0005 C   0  0  0  0  0  0  0  0  0  0  0  0
    2.2817   -1.4576    0.0007 Cl  0  0  0  0  0  0  0  0  0  0  0  0
   -0.0035    2.4200   -0.0005 C   0  0  0  0  0  0  0  0  0  0  0  0
    1.4023    2.4209    0.0005 C   0  0  0  0  0  0  0  0  0  0  0  0
   -0.8766    3.8721   -0.0012 Cl  0  0  0  0  0  0  0  0  0  0  0  0
    2.2773    3.8726    0.0005 Cl  0  0  0  0  0  0  0  0  0  0  0  0
   -1.8059    1.1945   -0.0004 H   0  0  0  0  0  0  0  0  0  0  0  0
   -0.1863   -1.9065   -0.0004 H   0  0  0  0  0  0  0  0  0  0  0  0
    3.2036    1.2130    0.0001 H   0  0  0  0  0  0  0  0  0  0  0  0
  1  2  2  0  0  0  0
  1  3  1  0  0  0  0
  1  4  1  0  0  0  0
  2  5  1  0  0  0  0
  2  6  1  0  0  0  0
  3  7  2  0  0  0  0
  3 11  1  0  0  0  0
  4 12  1  0  0  0  0
  5  8  2  0  0  0  0
  5 13  1  0  0  0  0
  7  8  1  0  0  0  0
  7  9  1  0  0  0  0
  8 10  1  0  0  0  0
M  END