1740198.out.mol
  Mrv0541 03111415023D          

 50 52  0  0  0  0            999 V2000
    0.0000    0.0000    0.0000 C   0  0  2  0  0  0  0  0  0  0  0  0
    1.5396    0.0000    0.0000 C   0  0  1  0  0  0  0  0  0  0  0  0
   -0.6665    1.3869    0.0000 C   0  0  1  0  0  0  0  0  0  0  0  0
   -0.5326   -0.9114    1.0919 C   0  0  1  0  0  0  0  0  0  0  0  0
    2.0024   -1.4320   -0.1730 C   0  0  0  0  0  0  0  0  0  0  0  0
    2.0138    0.8644   -1.1752 C   0  0  1  0  0  0  0  0  0  0  0  0
    2.1732    0.5106    1.2902 C   0  0  0  0  0  0  0  0  0  0  0  0
   -0.1046    2.2169   -1.1607 C   0  0  1  0  0  0  0  0  0  0  0  0
   -2.1489    1.1639   -0.2726 C   0  0  0  0  0  0  0  0  0  0  0  0
   -0.5485    2.1528    1.3104 C   0  0  0  0  0  0  0  0  0  0  0  0
   -0.1728   -2.3482    0.7780 C   0  0  1  0  0  0  0  0  0  0  0  0
    1.1993   -2.5148    0.2221 C   0  0  0  0  0  0  0  0  0  0  0  0
    3.2786   -1.6956   -0.6876 C   0  0  0  0  0  0  0  0  0  0  0  0
    1.4061    2.2503   -1.1674 C   0  0  1  0  0  0  0  0  0  0  0  0
   -2.4328    0.6135   -1.4891 O   0  0  0  0  0  0  0  0  0  0  0  0
   -3.1219    1.4115    0.4459 O   0  0  0  0  0  0  0  0  0  0  0  0
    1.6782   -3.8240    0.0803 C   0  0  0  0  0  0  0  0  0  0  0  0
    3.7459   -2.9983   -0.8273 C   0  0  0  0  0  0  0  0  0  0  0  0
    2.9459   -4.0807   -0.4442 C   0  0  0  0  0  0  0  0  0  0  0  0
    3.4503   -5.4815   -0.5952 C   0  0  1  0  0  0  0  0  0  0  0  0
    3.5436   -6.1753    0.7507 C   0  0  0  0  0  0  0  0  0  0  0  0
    2.5731   -6.2772   -1.5431 C   0  0  0  0  0  0  0  0  0  0  0  0
   -0.2976   -0.4628   -0.9931 H   0  0  0  0  0  0  0  0  0  0  0  0
   -0.1158   -0.6230    2.0913 H   0  0  0  0  0  0  0  0  0  0  0  0
   -1.6488   -0.8129    1.1610 H   0  0  0  0  0  0  0  0  0  0  0  0
    3.1296    0.9714   -1.1373 H   0  0  0  0  0  0  0  0  0  0  0  0
    1.7518    0.3448   -2.1340 H   0  0  0  0  0  0  0  0  0  0  0  0
    1.8405   -0.0951    2.1661 H   0  0  0  0  0  0  0  0  0  0  0  0
    3.2856    0.4269    1.2122 H   0  0  0  0  0  0  0  0  0  0  0  0
    1.9145    1.5784    1.4739 H   0  0  0  0  0  0  0  0  0  0  0  0
   -0.4658    1.7767   -2.1291 H   0  0  0  0  0  0  0  0  0  0  0  0
   -0.5045    3.2619   -1.0886 H   0  0  0  0  0  0  0  0  0  0  0  0
    0.3496    2.8158    1.3007 H   0  0  0  0  0  0  0  0  0  0  0  0
   -1.4477    2.8000    1.4666 H   0  0  0  0  0  0  0  0  0  0  0  0
   -0.4707    1.4520    2.1751 H   0  0  0  0  0  0  0  0  0  0  0  0
   -0.2751   -2.9672    1.7099 H   0  0  0  0  0  0  0  0  0  0  0  0
   -0.9054   -2.7580    0.0285 H   0  0  0  0  0  0  0  0  0  0  0  0
    3.9355   -0.8643   -0.9847 H   0  0  0  0  0  0  0  0  0  0  0  0
    1.7827    2.8247   -0.2803 H   0  0  0  0  0  0  0  0  0  0  0  0
    1.7490    2.8017   -2.0838 H   0  0  0  0  0  0  0  0  0  0  0  0
   -3.3942    0.5062   -1.5793 H   0  0  0  0  0  0  0  0  0  0  0  0
    1.0384   -4.6650    0.3908 H   0  0  0  0  0  0  0  0  0  0  0  0
    4.7509   -3.1752   -1.2389 H   0  0  0  0  0  0  0  0  0  0  0  0
    4.4889   -5.4419   -1.0365 H   0  0  0  0  0  0  0  0  0  0  0  0
    4.2140   -5.6050    1.4371 H   0  0  0  0  0  0  0  0  0  0  0  0
    2.5355   -6.2534    1.2243 H   0  0  0  0  0  0  0  0  0  0  0  0
    3.9558   -7.2049    0.6215 H   0  0  0  0  0  0  0  0  0  0  0  0
    2.5302   -5.7818   -2.5424 H   0  0  0  0  0  0  0  0  0  0  0  0
    2.9856   -7.3069   -1.6713 H   0  0  0  0  0  0  0  0  0  0  0  0
    1.5337   -6.3585   -1.1433 H   0  0  0  0  0  0  0  0  0  0  0  0
  1  2  1  0  0  0  0
  1  3  1  0  0  0  0
  1  4  1  0  0  0  0
  1 23  1  6  0  0  0
  2  5  1  0  0  0  0
  2  6  1  0  0  0  0
  2  7  1  1  0  0  0
  3  8  1  0  0  0  0
  3  9  1  6  0  0  0
  3 10  1  0  0  0  0
  4 11  1  0  0  0  0
  4 24  1  0  0  0  0
  4 25  1  0  0  0  0
  5 12  2  0  0  0  0
  5 13  1  0  0  0  0
  6 14  1  0  0  0  0
  6 26  1  0  0  0  0
  6 27  1  0  0  0  0
  7 28  1  0  0  0  0
  7 29  1  0  0  0  0
  7 30  1  0  0  0  0
  8 14  1  0  0  0  0
  8 31  1  0  0  0  0
  8 32  1  0  0  0  0
  9 15  1  0  0  0  0
  9 16  2  0  0  0  0
 10 33  1  0  0  0  0
 10 34  1  0  0  0  0
 10 35  1  0  0  0  0
 11 12  1  0  0  0  0
 11 36  1  0  0  0  0
 11 37  1  0  0  0  0
 12 17  1  0  0  0  0
 13 18  2  0  0  0  0
 13 38  1  0  0  0  0
 14 39  1  0  0  0  0
 14 40  1  0  0  0  0
 15 41  1  0  0  0  0
 17 19  2  0  0  0  0
 17 42  1  0  0  0  0
 18 19  1  0  0  0  0
 18 43  1  0  0  0  0
 19 20  1  0  0  0  0
 20 21  1  0  0  0  0
 20 22  1  0  0  0  0
 20 44  1  0  0  0  0
 21 45  1  0  0  0  0
 21 46  1  0  0  0  0
 21 47  1  0  0  0  0
 22 48  1  0  0  0  0
 22 49  1  0  0  0  0
 22 50  1  0  0  0  0
M  END