132649.out.mol
  Mrv0541 03111415023D          

 21 23  0  0  0  0            999 V2000
    0.0000    0.0000    0.0000 C   0  0  0  0  0  0  0  0  0  0  0  0
    1.4528    0.0000    0.0000 C   0  0  0  0  0  0  0  0  0  0  0  0
   -0.3885    1.3789    0.0000 C   0  0  0  0  0  0  0  0  0  0  0  0
   -0.9841   -0.9776    0.0004 C   0  0  0  0  0  0  0  0  0  0  0  0
    1.8413    1.3789   -0.0006 C   0  0  0  0  0  0  0  0  0  0  0  0
    2.4369   -0.9776    0.0004 C   0  0  0  0  0  0  0  0  0  0  0  0
    0.7264    2.2337   -0.0006 O   0  0  0  0  0  0  0  0  0  0  0  0
   -1.7131    1.7882    0.0005 C   0  0  0  0  0  0  0  0  0  0  0  0
   -2.3231   -0.5743    0.0008 C   0  0  0  0  0  0  0  0  0  0  0  0
    3.1659    1.7882   -0.0003 C   0  0  0  0  0  0  0  0  0  0  0  0
    3.7759   -0.5743   -0.0003 C   0  0  0  0  0  0  0  0  0  0  0  0
   -2.6794    0.7768    0.0002 C   0  0  0  0  0  0  0  0  0  0  0  0
    4.1322    0.7769   -0.0020 C   0  0  0  0  0  0  0  0  0  0  0  0
   -0.7185   -2.0439    0.0005 H   0  0  0  0  0  0  0  0  0  0  0  0
    2.1713   -2.0439    0.0005 H   0  0  0  0  0  0  0  0  0  0  0  0
   -1.9861    2.8510    0.0009 H   0  0  0  0  0  0  0  0  0  0  0  0
   -3.1138   -1.3395    0.0007 H   0  0  0  0  0  0  0  0  0  0  0  0
    3.4389    2.8510   -0.0012 H   0  0  0  0  0  0  0  0  0  0  0  0
    4.5666   -1.3395   -0.0004 H   0  0  0  0  0  0  0  0  0  0  0  0
   -3.7440    1.0563    0.0001 H   0  0  0  0  0  0  0  0  0  0  0  0
    5.1968    1.0563   -0.0029 H   0  0  0  0  0  0  0  0  0  0  0  0
  1  2  1  0  0  0  0
  1  3  1  0  0  0  0
  1  4  2  0  0  0  0
  2  5  1  0  0  0  0
  2  6  2  0  0  0  0
  3  7  1  0  0  0  0
  3  8  2  0  0  0  0
  4  9  1  0  0  0  0
  4 14  1  0  0  0  0
  5  7  1  0  0  0  0
  5 10  2  0  0  0  0
  6 11  1  0  0  0  0
  6 15  1  0  0  0  0
  8 12  1  0  0  0  0
  8 16  1  0  0  0  0
  9 12  2  0  0  0  0
  9 17  1  0  0  0  0
 10 13  1  0  0  0  0
 10 18  1  0  0  0  0
 11 13  2  0  0  0  0
 11 19  1  0  0  0  0
 12 20  1  0  0  0  0
 13 21  1  0  0  0  0
M  END