120729.out.mol
  Mrv0541 03111415023D          

 16 17  0  0  0  0            999 V2000
    0.0000    0.0000    0.0000 C   0  0  0  0  0  0  0  0  0  0  0  0
    1.4477    0.0000    0.0000 C   0  0  0  0  0  0  0  0  0  0  0  0
   -0.4088    1.3862    0.0000 C   0  0  0  0  0  0  0  0  0  0  0  0
   -0.6844   -1.2163   -0.0005 C   0  0  0  0  0  0  0  0  0  0  0  0
    1.8780    1.3288    0.0006 N   0  0  0  0  0  0  0  0  0  0  0  0
    2.1715   -1.2031    0.0005 C   0  0  0  0  0  0  0  0  0  0  0  0
    0.7505    2.1563   -0.0006 C   0  0  0  0  0  0  0  0  0  0  0  0
    0.0443   -2.3961   -0.0016 C   0  0  0  0  0  0  0  0  0  0  0  0
    1.4512   -2.3871    0.0005 C   0  0  0  0  0  0  0  0  0  0  0  0
   -1.4319    1.7480   -0.0004 H   0  0  0  0  0  0  0  0  0  0  0  0
   -1.7835   -1.2299   -0.0001 H   0  0  0  0  0  0  0  0  0  0  0  0
    2.8153    1.6265    0.0011 H   0  0  0  0  0  0  0  0  0  0  0  0
    3.2691   -1.2044    0.0001 H   0  0  0  0  0  0  0  0  0  0  0  0
    0.8631    3.2419   -0.0012 H   0  0  0  0  0  0  0  0  0  0  0  0
   -0.4809   -3.3624   -0.0016 H   0  0  0  0  0  0  0  0  0  0  0  0
    1.9900   -3.3467    0.0014 H   0  0  0  0  0  0  0  0  0  0  0  0
  1  2  2  0  0  0  0
  1  3  1  0  0  0  0
  1  4  1  0  0  0  0
  2  5  1  0  0  0  0
  2  6  1  0  0  0  0
  3  7  2  0  0  0  0
  3 10  1  0  0  0  0
  4  8  2  0  0  0  0
  4 11  1  0  0  0  0
  5  7  1  0  0  0  0
  5 12  1  0  0  0  0
  6  9  2  0  0  0  0
  6 13  1  0  0  0  0
  7 14  1  0  0  0  0
  8  9  1  0  0  0  0
  8 15  1  0  0  0  0
  9 16  1  0  0  0  0
M  END