51036.out.mol
  Mrv0541 03111415023D          

 54 55  0  0  0  0            999 V2000
    0.0000    0.0000    0.0000 C   0  0  0  0  0  0  0  0  0  0  0  0
    1.4189    0.0000    0.0000 C   0  0  0  0  0  0  0  0  0  0  0  0
   -0.7254    1.1701    0.0000 C   0  0  0  0  0  0  0  0  0  0  0  0
   -0.4605   -1.3146    0.0006 O   0  0  0  0  0  0  0  0  0  0  0  0
    2.1447    1.1697    0.0041 C   0  0  0  0  0  0  0  0  0  0  0  0
    1.8787   -1.3138   -0.0006 O   0  0  0  0  0  0  0  0  0  0  0  0
    0.0106    2.3769   -0.0064 C   0  0  0  0  0  0  0  0  0  0  0  0
    0.7090   -2.1643    0.0064 C   0  0  1  0  0  0  0  0  0  0  0  0
    1.4116    2.3798    0.0044 C   0  0  0  0  0  0  0  0  0  0  0  0
   -0.7714    3.6521   -0.0647 C   0  0  1  0  0  0  0  0  0  0  0  0
    2.1902    3.6512    0.0313 C   0  0  1  0  0  0  0  0  0  0  0  0
   -0.6808    4.2897    1.2151 O   0  0  0  0  0  0  0  0  0  0  0  0
    2.6106    4.0901   -1.3593 C   0  0  1  0  0  0  0  0  0  0  0  0
   -1.3768    5.5251    1.2722 C   0  0  1  0  0  0  0  0  0  0  0  0
    3.4393    5.3476   -1.3007 C   0  0  0  0  0  0  0  0  0  0  0  0
   -0.6467    6.6253    0.5066 C   0  0  1  0  0  0  0  0  0  0  0  0
   -1.1459    6.6006   -0.8282 O   0  0  0  0  0  0  0  0  0  0  0  0
   -0.2592    7.1846   -1.7772 C   0  0  1  0  0  0  0  0  0  0  0  0
   -0.6636    6.6433   -3.1446 C   0  0  1  0  0  0  0  0  0  0  0  0
    0.0632    5.4313   -3.3281 O   0  0  0  0  0  0  0  0  0  0  0  0
   -0.2875    4.7660   -4.5408 C   0  0  1  0  0  0  0  0  0  0  0  0
    0.5514    3.5018   -4.5959 C   0  0  1  0  0  0  0  0  0  0  0  0
    0.2668    2.7309   -5.8660 C   0  0  1  0  0  0  0  0  0  0  0  0
    1.0880    1.4694   -5.9362 C   0  0  0  0  0  0  0  0  0  0  0  0
   -1.8230    1.1710    0.0075 H   0  0  0  0  0  0  0  0  0  0  0  0
    3.2421    1.1733    0.0092 H   0  0  0  0  0  0  0  0  0  0  0  0
    0.7103   -2.7644    0.9493 H   0  0  0  0  0  0  0  0  0  0  0  0
    0.7090   -2.7780   -0.9278 H   0  0  0  0  0  0  0  0  0  0  0  0
   -0.3575    4.3388   -0.8567 H   0  0  0  0  0  0  0  0  0  0  0  0
   -1.8537    3.4498   -0.2919 H   0  0  0  0  0  0  0  0  0  0  0  0
    1.5803    4.4626    0.5142 H   0  0  0  0  0  0  0  0  0  0  0  0
    3.1064    3.5094    0.6667 H   0  0  0  0  0  0  0  0  0  0  0  0
    3.2006    3.2697   -1.8465 H   0  0  0  0  0  0  0  0  0  0  0  0
    1.6990    4.2681   -1.9945 H   0  0  0  0  0  0  0  0  0  0  0  0
   -2.4233    5.4105    0.8855 H   0  0  0  0  0  0  0  0  0  0  0  0
   -1.3903    5.7727    2.3677 H   0  0  0  0  0  0  0  0  0  0  0  0
    2.8584    6.1780   -0.8293 H   0  0  0  0  0  0  0  0  0  0  0  0
    4.3671    5.1854   -0.7005 H   0  0  0  0  0  0  0  0  0  0  0  0
    3.7341    5.6645   -2.3300 H   0  0  0  0  0  0  0  0  0  0  0  0
   -0.8721    7.6301    0.9516 H   0  0  0  0  0  0  0  0  0  0  0  0
    0.4607    6.4439    0.5278 H   0  0  0  0  0  0  0  0  0  0  0  0
   -0.3845    8.2988   -1.7501 H   0  0  0  0  0  0  0  0  0  0  0  0
    0.8071    6.9121   -1.5530 H   0  0  0  0  0  0  0  0  0  0  0  0
   -1.7665    6.4426   -3.1840 H   0  0  0  0  0  0  0  0  0  0  0  0
   -0.3807    7.3753   -3.9465 H   0  0  0  0  0  0  0  0  0  0  0  0
   -1.3835    4.5235   -4.5350 H   0  0  0  0  0  0  0  0  0  0  0  0
   -0.0669    5.4366   -5.4138 H   0  0  0  0  0  0  0  0  0  0  0  0
    1.6377    3.7746   -4.5415 H   0  0  0  0  0  0  0  0  0  0  0  0
    0.3262    2.8687   -3.6981 H   0  0  0  0  0  0  0  0  0  0  0  0
   -0.8245    2.4729   -5.9113 H   0  0  0  0  0  0  0  0  0  0  0  0
    0.4911    3.3770   -6.7558 H   0  0  0  0  0  0  0  0  0  0  0  0
    0.8636    0.9132   -6.8782 H   0  0  0  0  0  0  0  0  0  0  0  0
    2.1791    1.7076   -5.9180 H   0  0  0  0  0  0  0  0  0  0  0  0
    0.8612    0.8026   -5.0693 H   0  0  0  0  0  0  0  0  0  0  0  0
  1  2  2  0  0  0  0
  1  3  1  0  0  0  0
  1  4  1  0  0  0  0
  2  5  1  0  0  0  0
  2  6  1  0  0  0  0
  3  7  2  0  0  0  0
  3 25  1  0  0  0  0
  4  8  1  0  0  0  0
  5  9  2  0  0  0  0
  5 26  1  0  0  0  0
  6  8  1  0  0  0  0
  7  9  1  0  0  0  0
  7 10  1  0  0  0  0
  8 27  1  0  0  0  0
  8 28  1  0  0  0  0
  9 11  1  0  0  0  0
 10 12  1  0  0  0  0
 10 29  1  0  0  0  0
 10 30  1  0  0  0  0
 11 13  1  0  0  0  0
 11 31  1  0  0  0  0
 11 32  1  0  0  0  0
 12 14  1  0  0  0  0
 13 15  1  0  0  0  0
 13 33  1  0  0  0  0
 13 34  1  0  0  0  0
 14 16  1  0  0  0  0
 14 35  1  0  0  0  0
 14 36  1  0  0  0  0
 15 37  1  0  0  0  0
 15 38  1  0  0  0  0
 15 39  1  0  0  0  0
 16 17  1  0  0  0  0
 16 40  1  0  0  0  0
 16 41  1  0  0  0  0
 17 18  1  0  0  0  0
 18 19  1  0  0  0  0
 18 42  1  0  0  0  0
 18 43  1  0  0  0  0
 19 20  1  0  0  0  0
 19 44  1  0  0  0  0
 19 45  1  0  0  0  0
 20 21  1  0  0  0  0
 21 22  1  0  0  0  0
 21 46  1  0  0  0  0
 21 47  1  0  0  0  0
 22 23  1  0  0  0  0
 22 48  1  0  0  0  0
 22 49  1  0  0  0  0
 23 24  1  0  0  0  0
 23 50  1  0  0  0  0
 23 51  1  0  0  0  0
 24 52  1  0  0  0  0
 24 53  1  0  0  0  0
 24 54  1  0  0  0  0
M  END