626437.out.mol
  Mrv0541 03111415023D          

 14 14  0  0  0  0            999 V2000
    0.0000    0.0000    0.0000 C   0  0  0  0  0  0  0  0  0  0  0  0
    1.4153    0.0000    0.0000 C   0  0  0  0  0  0  0  0  0  0  0  0
   -0.6835    1.2393    0.0000 C   0  0  0  0  0  0  0  0  0  0  0  0
   -0.7080   -1.1990   -0.0765 N   0  0  2  0  0  0  0  0  0  0  0  0
    2.1066    1.2091   -0.0168 C   0  0  0  0  0  0  0  0  0  0  0  0
    0.0414    2.4286   -0.0168 C   0  0  0  0  0  0  0  0  0  0  0  0
    1.4383    2.4358   -0.0253 C   0  0  0  0  0  0  0  0  0  0  0  0
    3.8079    1.1911   -0.0225 Cl  0  0  0  0  0  0  0  0  0  0  0  0
   -0.7960    3.9097   -0.0223 Cl  0  0  0  0  0  0  0  0  0  0  0  0
    1.9706   -0.9502    0.0026 H   0  0  0  0  0  0  0  0  0  0  0  0
   -1.7837    1.2666    0.0027 H   0  0  0  0  0  0  0  0  0  0  0  0
   -1.6505   -1.1535    0.2384 H   0  0  0  0  0  0  0  0  0  0  0  0
   -0.2125   -2.0025    0.2369 H   0  0  0  0  0  0  0  0  0  0  0  0
    1.9975    3.3827   -0.0381 H   0  0  0  0  0  0  0  0  0  0  0  0
  1  2  2  0  0  0  0
  1  3  1  0  0  0  0
  1  4  1  0  0  0  0
  2  5  1  0  0  0  0
  2 10  1  0  0  0  0
  3  6  2  0  0  0  0
  3 11  1  0  0  0  0
  4 12  1  0  0  0  0
  4 13  1  0  0  0  0
  5  7  2  0  0  0  0
  5  8  1  0  0  0  0
  6  7  1  0  0  0  0
  6  9  1  0  0  0  0
  7 14  1  0  0  0  0
M  END