95512.out.mol
  Mrv0541 03111415023D          

 14 14  0  0  0  0            999 V2000
    0.0000    0.0000    0.0000 C   0  0  0  0  0  0  0  0  0  0  0  0
    1.4183    0.0000    0.0000 C   0  0  0  0  0  0  0  0  0  0  0  0
   -0.6566    1.2563    0.0000 C   0  0  0  0  0  0  0  0  0  0  0  0
   -0.7348   -1.1809    0.0775 N   0  0  2  0  0  0  0  0  0  0  0  0
    2.1362    1.1964    0.0202 C   0  0  0  0  0  0  0  0  0  0  0  0
    2.2804   -1.4713   -0.0238 Cl  0  0  0  0  0  0  0  0  0  0  0  0
    0.0711    2.4377    0.0190 C   0  0  0  0  0  0  0  0  0  0  0  0
    1.4662    2.4158    0.0300 C   0  0  0  0  0  0  0  0  0  0  0  0
   -1.7562    1.2958   -0.0046 H   0  0  0  0  0  0  0  0  0  0  0  0
   -0.2555   -2.0044   -0.2113 H   0  0  0  0  0  0  0  0  0  0  0  0
   -1.6679   -1.1146   -0.2609 H   0  0  0  0  0  0  0  0  0  0  0  0
    3.2371    1.1719    0.0269 H   0  0  0  0  0  0  0  0  0  0  0  0
   -0.4609    3.4014    0.0247 H   0  0  0  0  0  0  0  0  0  0  0  0
    2.0353    3.3557    0.0463 H   0  0  0  0  0  0  0  0  0  0  0  0
  1  2  2  0  0  0  0
  1  3  1  0  0  0  0
  1  4  1  0  0  0  0
  2  5  1  0  0  0  0
  2  6  1  0  0  0  0
  3  7  2  0  0  0  0
  3  9  1  0  0  0  0
  4 10  1  0  0  0  0
  4 11  1  0  0  0  0
  5  8  2  0  0  0  0
  5 12  1  0  0  0  0
  7  8  1  0  0  0  0
  7 13  1  0  0  0  0
  8 14  1  0  0  0  0
M  END