542858.out.mol
  Mrv0541 03111415023D          

 10  9  0  0  0  0            999 V2000
    0.0000    0.0000    0.0000 N   0  0  0  0  0  0  0  0  0  0  0  0
    1.4173    0.0000    0.0000 C   0  0  1  0  0  0  0  0  0  0  0  0
   -0.9320    0.7887    0.0000 C   0  0  0  0  0  0  0  0  0  0  0  0
    2.0146   -1.4006   -0.0006 C   0  0  0  0  0  0  0  0  0  0  0  0
   -2.1951    1.5461   -0.0005 S   0  0  0  0  0  0  0  0  0  0  0  0
    1.7885    0.5553   -0.9130 H   0  0  0  0  0  0  0  0  0  0  0  0
    1.7884    0.5533    0.9143 H   0  0  0  0  0  0  0  0  0  0  0  0
    3.1272   -1.3052   -0.0011 H   0  0  0  0  0  0  0  0  0  0  0  0
    1.7020   -1.9734    0.9049 H   0  0  0  0  0  0  0  0  0  0  0  0
    1.7019   -1.9726   -0.9064 H   0  0  0  0  0  0  0  0  0  0  0  0
  1  2  1  0  0  0  0
  1  3  2  0  0  0  0
  2  4  1  0  0  0  0
  2  6  1  0  0  0  0
  2  7  1  0  0  0  0
  3  5  2  0  0  0  0
  4  8  1  0  0  0  0
  4  9  1  0  0  0  0
  4 10  1  0  0  0  0
M  END