95534.out
  Mrv0541 03111415023D          

 17 17  0  0  0  0            999 V2000
    0.5402    0.7080    0.0074 C   0  0  0  0  0  0  0  0  0  0  0  0
   -0.6710    1.4028   -0.0053 C   0  0  0  0  0  0  0  0  0  0  0  0
   -1.8900    0.7307   -0.0087 C   0  0  0  0  0  0  0  0  0  0  0  0
   -1.9072   -0.6630    0.0015 C   0  0  0  0  0  0  0  0  0  0  0  0
   -0.7185   -1.3815    0.0167 C   0  0  0  0  0  0  0  0  0  0  0  0
    0.5282   -0.7124    0.0121 C   0  0  0  0  0  0  0  0  0  0  0  0
   -0.6579    2.5039   -0.0129 H   0  0  0  0  0  0  0  0  0  0  0  0
   -2.8320    1.2960   -0.0195 H   0  0  0  0  0  0  0  0  0  0  0  0
   -2.8668   -1.2011   -0.0008 H   0  0  0  0  0  0  0  0  0  0  0  0
   -0.7519   -2.4813    0.0222 H   0  0  0  0  0  0  0  0  0  0  0  0
    1.7182   -1.4463   -0.0673 N   0  0  1  0  0  0  0  0  0  0  0  0
    2.5163   -0.9735    0.2966 H   0  0  0  0  0  0  0  0  0  0  0  0
    1.6389   -2.3836    0.2613 H   0  0  0  0  0  0  0  0  0  0  0  0
    1.8183    1.4568    0.0071 C   0  0  0  0  0  0  0  0  0  0  0  0
    2.4195    1.2147    0.9199 H   0  0  0  0  0  0  0  0  0  0  0  0
    2.4275    1.1962   -0.8948 H   0  0  0  0  0  0  0  0  0  0  0  0
    1.6381    2.5602   -0.0032 H   0  0  0  0  0  0  0  0  0  0  0  0
  1  6  1  0  0  0  0
  2  1  2  0  0  0  0
  3  2  1  0  0  0  0
  3  4  2  0  0  0  0
  4  5  1  0  0  0  0
  5 10  1  0  0  0  0
  6  5  2  0  0  0  0
  7  2  1  0  0  0  0
  8  3  1  0  0  0  0
  9  4  1  0  0  0  0
 11  6  1  0  0  0  0
 11 13  1  0  0  0  0
 11 12  1  0  0  0  0
 14  1  1  0  0  0  0
 14 15  1  0  0  0  0
 16 14  1  0  0  0  0
 17 14  1  0  0  0  0
M  END