56531.out.mol
  Mrv0541 03111415023D          

 40 41  0  0  0  0            999 V2000
    0.0000    0.0000    0.0000 C   0  0  0  0  0  0  0  0  0  0  0  0
    1.3506    0.0000    0.0000 C   0  0  0  0  0  0  0  0  0  0  0  0
   -0.7915    1.2370    0.0000 C   0  0  0  0  0  0  0  0  0  0  0  0
   -0.8116   -1.2546    0.0367 C   0  0  1  0  0  0  0  0  0  0  0  0
    2.1421   -1.2369    0.0184 C   0  0  0  0  0  0  0  0  0  0  0  0
    2.1622    1.2550    0.0179 C   0  0  1  0  0  0  0  0  0  0  0  0
   -1.6083    1.5458    1.0989 C   0  0  0  0  0  0  0  0  0  0  0  0
   -0.7617    2.1083   -1.0960 C   0  0  0  0  0  0  0  0  0  0  0  0
   -1.5423   -1.4995   -1.2620 C   0  0  0  0  0  0  0  0  0  0  0  0
    2.9591   -1.5292    1.1217 C   0  0  0  0  0  0  0  0  0  0  0  0
    2.1122   -2.1245   -1.0644 C   0  0  0  0  0  0  0  0  0  0  0  0
    2.8927    1.4805   -1.2844 C   0  0  0  0  0  0  0  0  0  0  0  0
   -2.3821    2.7001    1.1107 C   0  0  0  0  0  0  0  0  0  0  0  0
   -1.5343    3.2666   -1.1054 C   0  0  0  0  0  0  0  0  0  0  0  0
    3.7329   -2.6831    1.1507 C   0  0  0  0  0  0  0  0  0  0  0  0
    2.8847   -3.2827   -1.0566 C   0  0  0  0  0  0  0  0  0  0  0  0
   -2.3437    3.5598    0.0004 C   0  0  0  0  0  0  0  0  0  0  0  0
    3.6943   -3.5594    0.0534 C   0  0  0  0  0  0  0  0  0  0  0  0
   -3.1346    4.6843    0.0663 O   0  0  0  0  0  0  0  0  0  0  0  0
    4.4852   -4.6828    0.1360 O   0  0  0  0  0  0  0  0  0  0  0  0
   -0.1542   -2.1366    0.2643 H   0  0  0  0  0  0  0  0  0  0  0  0
   -1.5593   -1.1725    0.8729 H   0  0  0  0  0  0  0  0  0  0  0  0
    1.5048    2.1402    0.2324 H   0  0  0  0  0  0  0  0  0  0  0  0
    2.9100    1.1854    0.8551 H   0  0  0  0  0  0  0  0  0  0  0  0
   -1.6337    0.8674    1.9656 H   0  0  0  0  0  0  0  0  0  0  0  0
   -0.1182    1.8746   -1.9583 H   0  0  0  0  0  0  0  0  0  0  0  0
   -2.1878   -2.4062   -1.1711 H   0  0  0  0  0  0  0  0  0  0  0  0
   -2.1882   -0.6263   -1.5222 H   0  0  0  0  0  0  0  0  0  0  0  0
   -0.8187   -1.6629   -2.0969 H   0  0  0  0  0  0  0  0  0  0  0  0
    2.9846   -0.8378    1.9782 H   0  0  0  0  0  0  0  0  0  0  0  0
    1.4685   -1.9038   -1.9300 H   0  0  0  0  0  0  0  0  0  0  0  0
    2.1689    1.6314   -2.1215 H   0  0  0  0  0  0  0  0  0  0  0  0
    3.5381    2.3886   -1.2072 H   0  0  0  0  0  0  0  0  0  0  0  0
    3.5386    0.6036   -1.5317 H   0  0  0  0  0  0  0  0  0  0  0  0
   -3.0209    2.9504    1.9690 H   0  0  0  0  0  0  0  0  0  0  0  0
   -1.5089    3.9440   -1.9702 H   0  0  0  0  0  0  0  0  0  0  0  0
    4.3718   -2.9206    2.0126 H   0  0  0  0  0  0  0  0  0  0  0  0
    2.8593   -3.9730   -1.9111 H   0  0  0  0  0  0  0  0  0  0  0  0
   -3.0138    5.1816   -0.7555 H   0  0  0  0  0  0  0  0  0  0  0  0
    4.3641   -5.1924   -0.6781 H   0  0  0  0  0  0  0  0  0  0  0  0
  1  2  2  0  0  0  0
  1  3  1  0  0  0  0
  1  4  1  0  0  0  0
  2  5  1  0  0  0  0
  2  6  1  0  0  0  0
  3  7  2  0  0  0  0
  3  8  1  0  0  0  0
  4  9  1  0  0  0  0
  4 21  1  0  0  0  0
  4 22  1  0  0  0  0
  5 10  2  0  0  0  0
  5 11  1  0  0  0  0
  6 12  1  0  0  0  0
  6 23  1  0  0  0  0
  6 24  1  0  0  0  0
  7 13  1  0  0  0  0
  7 25  1  0  0  0  0
  8 14  2  0  0  0  0
  8 26  1  0  0  0  0
  9 27  1  0  0  0  0
  9 28  1  0  0  0  0
  9 29  1  0  0  0  0
 10 15  1  0  0  0  0
 10 30  1  0  0  0  0
 11 16  2  0  0  0  0
 11 31  1  0  0  0  0
 12 32  1  0  0  0  0
 12 33  1  0  0  0  0
 12 34  1  0  0  0  0
 13 17  2  0  0  0  0
 13 35  1  0  0  0  0
 14 17  1  0  0  0  0
 14 36  1  0  0  0  0
 15 18  2  0  0  0  0
 15 37  1  0  0  0  0
 16 18  1  0  0  0  0
 16 38  1  0  0  0  0
 17 19  1  0  0  0  0
 18 20  1  0  0  0  0
 19 39  1  0  0  0  0
 20 40  1  0  0  0  0
M  END