103695.out.mol
  Mrv0541 03111415023D          

 20 20  0  0  0  0            999 V2000
    0.0000    0.0000    0.0000 C   0  0  0  0  0  0  0  0  0  0  0  0
    1.4172    0.0000    0.0000 C   0  0  0  0  0  0  0  0  0  0  0  0
   -0.6692    1.2453    0.0000 C   0  0  0  0  0  0  0  0  0  0  0  0
   -0.6956   -1.2165    0.0835 N   0  0  1  0  0  0  0  0  0  0  0  0
    2.1210    1.1975    0.0157 C   0  0  0  0  0  0  0  0  0  0  0  0
    0.0555    2.4328    0.0134 C   0  0  0  0  0  0  0  0  0  0  0  0
   -2.0618   -1.2571   -0.3894 C   0  0  1  0  0  0  0  0  0  0  0  0
    1.4484    2.4192    0.0212 C   0  0  0  0  0  0  0  0  0  0  0  0
   -2.5721   -2.6662   -0.6435 C   0  0  0  0  0  0  0  0  0  0  0  0
    1.9698   -0.9513   -0.0030 H   0  0  0  0  0  0  0  0  0  0  0  0
   -1.7682    1.2871    0.0004 H   0  0  0  0  0  0  0  0  0  0  0  0
   -0.1506   -2.0019   -0.2089 H   0  0  0  0  0  0  0  0  0  0  0  0
    3.2213    1.1781    0.0214 H   0  0  0  0  0  0  0  0  0  0  0  0
   -0.4832    3.3925    0.0176 H   0  0  0  0  0  0  0  0  0  0  0  0
   -2.7035   -0.7726    0.4027 H   0  0  0  0  0  0  0  0  0  0  0  0
   -2.1869   -0.6522   -1.3362 H   0  0  0  0  0  0  0  0  0  0  0  0
    2.0126    3.3617    0.0313 H   0  0  0  0  0  0  0  0  0  0  0  0
   -1.9896   -3.1675   -1.4535 H   0  0  0  0  0  0  0  0  0  0  0  0
   -2.5078   -3.2915    0.2792 H   0  0  0  0  0  0  0  0  0  0  0  0
   -3.6413   -2.6085   -0.9597 H   0  0  0  0  0  0  0  0  0  0  0  0
  1  2  2  0  0  0  0
  1  3  1  0  0  0  0
  1  4  1  0  0  0  0
  2  5  1  0  0  0  0
  2 10  1  0  0  0  0
  3  6  2  0  0  0  0
  3 11  1  0  0  0  0
  4  7  1  0  0  0  0
  4 12  1  0  0  0  0
  5  8  2  0  0  0  0
  5 13  1  0  0  0  0
  6  8  1  0  0  0  0
  6 14  1  0  0  0  0
  7  9  1  0  0  0  0
  7 15  1  0  0  0  0
  7 16  1  0  0  0  0
  8 17  1  0  0  0  0
  9 18  1  0  0  0  0
  9 19  1  0  0  0  0
  9 20  1  0  0  0  0
M  END