609198.out.mol
  Mrv0541 03111415023D          

 13 13  0  0  0  0            999 V2000
    0.0000    0.0000    0.0000 C   0  0  0  0  0  0  0  0  0  0  0  0
    1.4070    0.0000    0.0000 C   0  0  0  0  0  0  0  0  0  0  0  0
   -0.6825    1.2266    0.0000 C   0  0  0  0  0  0  0  0  0  0  0  0
   -0.8573   -1.4592   -0.0007 Cl  0  0  0  0  0  0  0  0  0  0  0  0
    2.1234    1.1956    0.0005 C   0  0  0  0  0  0  0  0  0  0  0  0
    2.2706   -1.4593   -0.0007 Cl  0  0  0  0  0  0  0  0  0  0  0  0
    0.0189    2.4344    0.0005 C   0  0  0  0  0  0  0  0  0  0  0  0
   -2.3776    1.2776   -0.0007 Cl  0  0  0  0  0  0  0  0  0  0  0  0
    1.4188    2.4100    0.0005 C   0  0  0  0  0  0  0  0  0  0  0  0
    2.1798    3.5536    0.0016 O   0  0  0  0  0  0  0  0  0  0  0  0
    3.2239    1.2051    0.0001 H   0  0  0  0  0  0  0  0  0  0  0  0
   -0.5223    3.3921    0.0010 H   0  0  0  0  0  0  0  0  0  0  0  0
    1.5804    4.3151    0.0018 H   0  0  0  0  0  0  0  0  0  0  0  0
  1  2  2  0  0  0  0
  1  3  1  0  0  0  0
  1  4  1  0  0  0  0
  2  5  1  0  0  0  0
  2  6  1  0  0  0  0
  3  7  2  0  0  0  0
  3  8  1  0  0  0  0
  5  9  2  0  0  0  0
  5 11  1  0  0  0  0
  7  9  1  0  0  0  0
  7 12  1  0  0  0  0
  9 10  1  0  0  0  0
 10 13  1  0  0  0  0
M  END