57057837.out.mol
  Mrv0541 03111415023D          

 17 17  0  0  0  0            999 V2000
    0.0000    0.0000    0.0000 C   0  0  0  0  0  0  0  0  0  0  0  0
    1.4018    0.0000    0.0000 C   0  0  0  0  0  0  0  0  0  0  0  0
   -0.7066    1.2212    0.0000 C   0  0  0  0  0  0  0  0  0  0  0  0
   -0.7522   -1.1599    0.1174 O   0  0  0  0  0  0  0  0  0  0  0  0
    2.0936    1.2241   -0.0203 C   0  0  0  0  0  0  0  0  0  0  0  0
    2.2586   -1.4611    0.0275 Cl  0  0  0  0  0  0  0  0  0  0  0  0
   -0.0195    2.4409   -0.0164 C   0  0  0  0  0  0  0  0  0  0  0  0
   -2.0760    1.2690    0.0138 O   0  0  0  0  0  0  0  0  0  0  0  0
   -0.9331   -1.8558   -1.1198 C   0  0  0  0  0  0  0  0  0  0  0  0
    1.3755    2.4321   -0.0317 C   0  0  0  0  0  0  0  0  0  0  0  0
    3.7872    1.2418   -0.0288 Cl  0  0  0  0  0  0  0  0  0  0  0  0
    2.1879    3.9204   -0.0592 Cl  0  0  0  0  0  0  0  0  0  0  0  0
   -0.5872    3.3839   -0.0166 H   0  0  0  0  0  0  0  0  0  0  0  0
   -2.4047    0.3601    0.1228 H   0  0  0  0  0  0  0  0  0  0  0  0
    0.0515   -2.1389   -1.5618 H   0  0  0  0  0  0  0  0  0  0  0  0
   -1.5137   -2.7652   -0.8242 H   0  0  0  0  0  0  0  0  0  0  0  0
   -1.5147   -1.2217   -1.8319 H   0  0  0  0  0  0  0  0  0  0  0  0
  1  2  2  0  0  0  0
  1  3  1  0  0  0  0
  1  4  1  0  0  0  0
  2  5  1  0  0  0  0
  2  6  1  0  0  0  0
  3  7  2  0  0  0  0
  3  8  1  0  0  0  0
  4  9  1  0  0  0  0
  5 10  2  0  0  0  0
  5 11  1  0  0  0  0
  7 10  1  0  0  0  0
  7 13  1  0  0  0  0
  8 14  1  0  0  0  0
  9 15  1  0  0  0  0
  9 16  1  0  0  0  0
  9 17  1  0  0  0  0
 10 12  1  0  0  0  0
M  END