554007.out.mol
  Mrv0541 03111415023D          

 14 14  0  0  0  0            999 V2000
    0.0000    0.0000    0.0000 C   0  0  0  0  0  0  0  0  0  0  0  0
    1.4191    0.0000    0.0000 C   0  0  0  0  0  0  0  0  0  0  0  0
   -0.7220    1.1928    0.0000 C   0  0  0  0  0  0  0  0  0  0  0  0
   -0.8615   -1.4701    0.0007 Cl  0  0  0  0  0  0  0  0  0  0  0  0
    2.0754    1.2569   -0.0198 C   0  0  0  0  0  0  0  0  0  0  0  0
    2.1520   -1.1770    0.0945 N   0  0  2  0  0  0  0  0  0  0  0  0
   -0.0439    2.4119   -0.0103 C   0  0  0  0  0  0  0  0  0  0  0  0
    1.3546    2.4411   -0.0207 C   0  0  0  0  0  0  0  0  0  0  0  0
   -0.9227    3.8665   -0.0125 Cl  0  0  0  0  0  0  0  0  0  0  0  0
   -1.8239    1.1683    0.0065 H   0  0  0  0  0  0  0  0  0  0  0  0
    3.1755    1.2973   -0.0245 H   0  0  0  0  0  0  0  0  0  0  0  0
    3.0920   -1.1195   -0.2239 H   0  0  0  0  0  0  0  0  0  0  0  0
    1.6757   -2.0107   -0.1667 H   0  0  0  0  0  0  0  0  0  0  0  0
    1.8876    3.4049   -0.0303 H   0  0  0  0  0  0  0  0  0  0  0  0
  1  2  2  0  0  0  0
  1  3  1  0  0  0  0
  1  4  1  0  0  0  0
  2  5  1  0  0  0  0
  2  6  1  0  0  0  0
  3  7  2  0  0  0  0
  3 10  1  0  0  0  0
  5  8  2  0  0  0  0
  5 11  1  0  0  0  0
  6 12  1  0  0  0  0
  6 13  1  0  0  0  0
  7  8  1  0  0  0  0
  7  9  1  0  0  0  0
  8 14  1  0  0  0  0
M  END