634833.out.mol
  Mrv0541 03111415023D          

 14 14  0  0  0  0            999 V2000
    0.0000    0.0000    0.0000 C   0  0  0  0  0  0  0  0  0  0  0  0
    1.3989    0.0000    0.0000 C   0  0  0  0  0  0  0  0  0  0  0  0
   -0.7147    1.2078    0.0000 C   0  0  0  0  0  0  0  0  0  0  0  0
   -0.8411   -1.4719   -0.0007 Cl  0  0  0  0  0  0  0  0  0  0  0  0
    2.1227    1.2253    0.0005 C   0  0  0  0  0  0  0  0  0  0  0  0
    2.2510   -1.4723    0.0007 Cl  0  0  0  0  0  0  0  0  0  0  0  0
   -0.0045    2.4186   -0.0005 C   0  0  0  0  0  0  0  0  0  0  0  0
   -2.4080    1.2064   -0.0007 Cl  0  0  0  0  0  0  0  0  0  0  0  0
    1.3845    2.4359   -0.0016 C   0  0  0  0  0  0  0  0  0  0  0  0
    3.4941    1.2513    0.0011 N   0  0  0  0  0  0  0  0  0  0  0  0
   -0.8278    3.9031   -0.0012 Cl  0  0  0  0  0  0  0  0  0  0  0  0
    1.9157    3.4008   -0.0025 H   0  0  0  0  0  0  0  0  0  0  0  0
    4.0120    0.4102    0.0004 H   0  0  0  0  0  0  0  0  0  0  0  0
    3.9667    2.1174    0.0011 H   0  0  0  0  0  0  0  0  0  0  0  0
  1  2  2  0  0  0  0
  1  3  1  0  0  0  0
  1  4  1  0  0  0  0
  2  5  1  0  0  0  0
  2  6  1  0  0  0  0
  3  7  2  0  0  0  0
  3  8  1  0  0  0  0
  5  9  2  0  0  0  0
  5 10  1  0  0  0  0
  7  9  1  0  0  0  0
  7 11  1  0  0  0  0
  9 12  1  0  0  0  0
 10 13  1  0  0  0  0
 10 14  1  0  0  0  0
M  END