104949.out.mol
  Mrv0541 03111415023D          

 18 18  0  0  0  0            999 V2000
    0.0000    0.0000    0.0000 C   0  0  0  0  0  0  0  0  0  0  0  0
    1.4062    0.0000    0.0000 C   0  0  0  0  0  0  0  0  0  0  0  0
   -0.7061    1.2056    0.0000 C   0  0  0  0  0  0  0  0  0  0  0  0
   -0.5827   -1.2562   -0.0084 O   0  0  0  0  0  0  0  0  0  0  0  0
    2.0940    1.2029   -0.0005 C   0  0  0  0  0  0  0  0  0  0  0  0
   -0.0125    2.4121    0.0005 C   0  0  0  0  0  0  0  0  0  0  0  0
   -2.0029   -1.2835    0.0440 C   0  0  0  0  0  0  0  0  0  0  0  0
    1.3983    2.4363    0.0077 C   0  0  0  0  0  0  0  0  0  0  0  0
    2.0965    3.6505    0.1067 N   0  0  1  0  0  0  0  0  0  0  0  0
    1.9456   -0.9582   -0.0004 H   0  0  0  0  0  0  0  0  0  0  0  0
   -1.8051    1.2182   -0.0004 H   0  0  0  0  0  0  0  0  0  0  0  0
    3.1946    1.1908    0.0036 H   0  0  0  0  0  0  0  0  0  0  0  0
   -0.5821    3.3537    0.0044 H   0  0  0  0  0  0  0  0  0  0  0  0
   -2.3756   -0.7887    0.9736 H   0  0  0  0  0  0  0  0  0  0  0  0
   -2.4407   -0.7946   -0.8602 H   0  0  0  0  0  0  0  0  0  0  0  0
   -2.2433   -2.3768    0.0555 H   0  0  0  0  0  0  0  0  0  0  0  0
    3.0255    3.6047   -0.2524 H   0  0  0  0  0  0  0  0  0  0  0  0
    1.5896    4.4305   -0.2521 H   0  0  0  0  0  0  0  0  0  0  0  0
  1  2  2  0  0  0  0
  1  3  1  0  0  0  0
  1  4  1  0  0  0  0
  2  5  1  0  0  0  0
  2 10  1  0  0  0  0
  3  6  2  0  0  0  0
  3 11  1  0  0  0  0
  4  7  1  0  0  0  0
  5  8  2  0  0  0  0
  5 12  1  0  0  0  0
  6  8  1  0  0  0  0
  6 13  1  0  0  0  0
  7 14  1  0  0  0  0
  7 15  1  0  0  0  0
  7 16  1  0  0  0  0
  8  9  1  0  0  0  0
  9 17  1  0  0  0  0
  9 18  1  0  0  0  0
M  END