1570656.out.mol
  Mrv0541 03111415023D          

 16 16  0  0  0  0            999 V2000
    0.0000    0.0000    0.0000 C   0  0  0  0  0  0  0  0  0  0  0  0
    1.4141    0.0000    0.0000 C   0  0  0  0  0  0  0  0  0  0  0  0
   -0.7074    1.2142    0.0000 C   0  0  0  0  0  0  0  0  0  0  0  0
   -0.5994   -1.2350   -0.0006 O   0  0  0  0  0  0  0  0  0  0  0  0
    2.0896    1.2183    0.0005 C   0  0  0  0  0  0  0  0  0  0  0  0
    2.1448   -1.2868   -0.0006 C   0  0  0  0  0  0  0  0  0  0  0  0
   -0.0177    2.4298    0.0005 C   0  0  0  0  0  0  0  0  0  0  0  0
   -2.4097    1.2326   -0.0007 Cl  0  0  0  0  0  0  0  0  0  0  0  0
    1.3769    2.4228    0.0016 C   0  0  0  0  0  0  0  0  0  0  0  0
    2.2219    3.8975    0.0016 Cl  0  0  0  0  0  0  0  0  0  0  0  0
   -1.5621   -1.1090   -0.0009 H   0  0  0  0  0  0  0  0  0  0  0  0
    3.1913    1.2289    0.0001 H   0  0  0  0  0  0  0  0  0  0  0  0
    1.8653   -1.8830   -0.9058 H   0  0  0  0  0  0  0  0  0  0  0  0
    3.2501   -1.1277    0.0015 H   0  0  0  0  0  0  0  0  0  0  0  0
    1.8623   -1.8857    0.9019 H   0  0  0  0  0  0  0  0  0  0  0  0
   -0.5741    3.3805    0.0010 H   0  0  0  0  0  0  0  0  0  0  0  0
  1  2  2  0  0  0  0
  1  3  1  0  0  0  0
  1  4  1  0  0  0  0
  2  5  1  0  0  0  0
  2  6  1  0  0  0  0
  3  7  2  0  0  0  0
  3  8  1  0  0  0  0
  4 11  1  0  0  0  0
  5  9  2  0  0  0  0
  5 12  1  0  0  0  0
  6 13  1  0  0  0  0
  6 14  1  0  0  0  0
  6 15  1  0  0  0  0
  7  9  1  0  0  0  0
  7 16  1  0  0  0  0
  9 10  1  0  0  0  0
M  END