115297.out.mol
  Mrv0541 03111415023D          

 25 27  0  0  0  0            999 V2000
    0.0000    0.0000    0.0000 C   0  0  1  0  0  0  0  0  0  0  0  0
    1.5498    0.0000    0.0000 C   0  0  2  0  0  0  0  0  0  0  0  0
   -0.2663    1.5738    0.0000 C   0  0  1  0  0  0  0  0  0  0  0  0
   -0.4631   -0.3262   -1.4212 C   0  0  0  0  0  0  0  0  0  0  0  0
   -0.7390   -0.8911    1.2695 Cl  0  0  0  0  0  0  0  0  0  0  0  0
    1.9126    1.0864   -1.0438 C   0  0  1  0  0  0  0  0  0  0  0  0
    2.2254   -1.3258   -0.3169 C   0  0  1  0  0  0  0  0  0  0  0  0
    0.5521    1.7815   -1.3430 C   0  0  1  0  0  0  0  0  0  0  0  0
   -1.9596    1.9784   -0.1638 Cl  0  0  0  0  0  0  0  0  0  0  0  0
    0.3758    2.4171    1.3833 Cl  0  0  0  0  0  0  0  0  0  0  0  0
   -0.1679    0.7403   -2.2183 C   0  0  0  0  0  0  0  0  0  0  0  0
   -1.2016   -1.7544   -1.8364 Cl  0  0  0  0  0  0  0  0  0  0  0  0
    3.0602    1.9685   -0.5786 C   0  0  1  0  0  0  0  0  0  0  0  0
    3.5585   -1.2943    0.1379 O   0  0  0  0  0  0  0  0  0  0  0  0
    0.6215    3.3850   -1.9494 Cl  0  0  0  0  0  0  0  0  0  0  0  0
   -0.4467    0.9422   -3.8396 Cl  0  0  0  0  0  0  0  0  0  0  0  0
    4.0523    1.2251    0.0928 O   0  0  0  0  0  0  0  0  0  0  0  0
    4.7164   -0.2234   -0.4747 S   0  0  2  0  0  0  0  0  0  0  0  0
    4.3735   -0.1790   -1.8687 O   0  0  0  0  0  0  0  0  0  0  0  0
    1.9039    0.3190    1.0227 H   0  0  0  0  0  0  0  0  0  0  0  0
    2.2529    0.5944   -2.0035 H   0  0  0  0  0  0  0  0  0  0  0  0
    1.7492   -2.1659    0.2609 H   0  0  0  0  0  0  0  0  0  0  0  0
    2.1993   -1.5519   -1.4167 H   0  0  0  0  0  0  0  0  0  0  0  0
    3.5225    2.4837   -1.4639 H   0  0  0  0  0  0  0  0  0  0  0  0
    2.7276    2.7324    0.1777 H   0  0  0  0  0  0  0  0  0  0  0  0
  1  2  1  0  0  0  0
  1  3  1  0  0  0  0
  1  4  1  0  0  0  0
  1  5  1  1  0  0  0
  2  6  1  0  0  0  0
  2  7  1  0  0  0  0
  2 20  1  1  0  0  0
  3  8  1  0  0  0  0
  3  9  1  0  0  0  0
  3 10  1  0  0  0  0
  4 11  2  0  0  0  0
  4 12  1  0  0  0  0
  6  8  1  0  0  0  0
  6 13  1  0  0  0  0
  6 21  1  6  0  0  0
  7 14  1  0  0  0  0
  7 22  1  0  0  0  0
  7 23  1  0  0  0  0
  8 11  1  0  0  0  0
  8 15  1  6  0  0  0
 11 16  1  0  0  0  0
 13 17  1  0  0  0  0
 13 24  1  0  0  0  0
 13 25  1  0  0  0  0
 14 18  1  0  0  0  0
 17 18  1  0  0  0  0
 18 19  2  0  0  0  0
M  END