25167833.out.mol
  Mrv0541 03111415023D          

 13 13  0  0  0  0            999 V2000
    0.0000    0.0000    0.0000 C   0  0  0  0  0  0  0  0  0  0  0  0
    1.4070    0.0000    0.0000 C   0  0  0  0  0  0  0  0  0  0  0  0
    2.0964    1.2229    0.0000 C   0  0  0  0  0  0  0  0  0  0  0  0
    1.3875    2.4345    0.0005 C   0  0  0  0  0  0  0  0  0  0  0  0
   -0.0188    2.4156    0.0005 C   0  0  0  0  0  0  0  0  0  0  0  0
   -0.7138    1.2094   -0.0005 C   0  0  0  0  0  0  0  0  0  0  0  0
   -0.7678   -1.1355   -0.0005 O   0  0  0  0  0  0  0  0  0  0  0  0
    2.2567   -1.4698   -0.0007 Cl  0  0  0  0  0  0  0  0  0  0  0  0
    3.7891    1.2331   -0.0007 Cl  0  0  0  0  0  0  0  0  0  0  0  0
    2.2182    3.9092   -0.0001 Cl  0  0  0  0  0  0  0  0  0  0  0  0
   -0.9046    3.8600    0.0005 Cl  0  0  0  0  0  0  0  0  0  0  0  0
   -1.8148    1.1810   -0.0010 H   0  0  0  0  0  0  0  0  0  0  0  0
   -0.1803   -1.9092   -0.0013 H   0  0  0  0  0  0  0  0  0  0  0  0
  1  2  2  0  0  0  0
  1  6  1  0  0  0  0
  1  7  1  0  0  0  0
  2  3  1  0  0  0  0
  2  8  1  0  0  0  0
  3  4  2  0  0  0  0
  3  9  1  0  0  0  0
  4  5  1  0  0  0  0
  4 10  1  0  0  0  0
  5  6  2  0  0  0  0
  5 11  1  0  0  0  0
  6 12  1  0  0  0  0
  7 13  1  0  0  0  0
M  END