100618.out.mol
  Mrv0541 03111415023D          

 17 17  0  0  0  0            999 V2000
    0.0000    0.0000    0.0000 C   0  0  0  0  0  0  0  0  0  0  0  0
    1.4172    0.0000    0.0000 C   0  0  0  0  0  0  0  0  0  0  0  0
   -0.6691    1.2449    0.0000 C   0  0  0  0  0  0  0  0  0  0  0  0
   -0.6928   -1.2195    0.0779 N   0  0  1  0  0  0  0  0  0  0  0  0
    2.1209    1.1975    0.0184 C   0  0  0  0  0  0  0  0  0  0  0  0
    0.0554    2.4326    0.0181 C   0  0  0  0  0  0  0  0  0  0  0  0
   -2.0727   -1.2590   -0.3095 C   0  0  0  0  0  0  0  0  0  0  0  0
    1.4482    2.4191    0.0276 C   0  0  0  0  0  0  0  0  0  0  0  0
    1.9697   -0.9513   -0.0052 H   0  0  0  0  0  0  0  0  0  0  0  0
   -1.7679    1.2872   -0.0074 H   0  0  0  0  0  0  0  0  0  0  0  0
   -0.1594   -1.9912   -0.2670 H   0  0  0  0  0  0  0  0  0  0  0  0
    3.2212    1.1781    0.0241 H   0  0  0  0  0  0  0  0  0  0  0  0
   -0.4835    3.3922    0.0235 H   0  0  0  0  0  0  0  0  0  0  0  0
   -2.6821   -0.6782    0.4336 H   0  0  0  0  0  0  0  0  0  0  0  0
   -2.2597   -0.8289   -1.3318 H   0  0  0  0  0  0  0  0  0  0  0  0
   -2.4193   -2.3261   -0.2986 H   0  0  0  0  0  0  0  0  0  0  0  0
    2.0123    3.3617    0.0415 H   0  0  0  0  0  0  0  0  0  0  0  0
  1  2  2  0  0  0  0
  1  3  1  0  0  0  0
  1  4  1  0  0  0  0
  2  5  1  0  0  0  0
  2  9  1  0  0  0  0
  3  6  2  0  0  0  0
  3 10  1  0  0  0  0
  4  7  1  0  0  0  0
  4 11  1  0  0  0  0
  5  8  2  0  0  0  0
  5 12  1  0  0  0  0
  6  8  1  0  0  0  0
  6 13  1  0  0  0  0
  7 14  1  0  0  0  0
  7 15  1  0  0  0  0
  7 16  1  0  0  0  0
  8 17  1  0  0  0  0
M  END