88062.out.mol
  Mrv0541 03111415023D          

 13 13  0  0  0  0            999 V2000
    0.0000    0.0000    0.0000 C   0  0  0  0  0  0  0  0  0  0  0  0
    1.4091    0.0000    0.0000 C   0  0  0  0  0  0  0  0  0  0  0  0
   -0.6898    1.2322    0.0000 C   0  0  0  0  0  0  0  0  0  0  0  0
   -0.7535   -1.1447    0.0005 O   0  0  0  0  0  0  0  0  0  0  0  0
    2.1202    1.2009   -0.0005 C   0  0  0  0  0  0  0  0  0  0  0  0
    2.2736   -1.4657    0.0007 Cl  0  0  0  0  0  0  0  0  0  0  0  0
    0.0254    2.4308   -0.0005 C   0  0  0  0  0  0  0  0  0  0  0  0
   -2.3842    1.2968    0.0006 Cl  0  0  0  0  0  0  0  0  0  0  0  0
    1.4229    2.4102   -0.0005 C   0  0  0  0  0  0  0  0  0  0  0  0
    2.2827    3.8741   -0.0018 Cl  0  0  0  0  0  0  0  0  0  0  0  0
   -0.1523   -1.9082    0.0004 H   0  0  0  0  0  0  0  0  0  0  0  0
    3.2223    1.1907   -0.0010 H   0  0  0  0  0  0  0  0  0  0  0  0
   -0.5151    3.3919   -0.0001 H   0  0  0  0  0  0  0  0  0  0  0  0
  1  2  2  0  0  0  0
  1  3  1  0  0  0  0
  1  4  1  0  0  0  0
  2  5  1  0  0  0  0
  2  6  1  0  0  0  0
  3  7  2  0  0  0  0
  3  8  1  0  0  0  0
  4 11  1  0  0  0  0
  5  9  2  0  0  0  0
  5 12  1  0  0  0  0
  7  9  1  0  0  0  0
  7 13  1  0  0  0  0
  9 10  1  0  0  0  0
M  END