101553.out.mol
  Mrv0541 03111415023D          

 23 24  0  0  0  0            999 V2000
    0.0000    0.0000    0.0000 C   0  0  0  0  0  0  0  0  0  0  0  0
    1.3885    0.0000    0.0000 O   0  0  0  0  0  0  0  0  0  0  0  0
   -0.7790    1.1627    0.0000 C   0  0  0  0  0  0  0  0  0  0  0  0
   -0.5964   -1.2695   -0.0825 C   0  0  0  0  0  0  0  0  0  0  0  0
    2.0195    1.1055    0.5689 C   0  0  0  0  0  0  0  0  0  0  0  0
   -2.1651    1.0529   -0.0828 C   0  0  0  0  0  0  0  0  0  0  0  0
   -1.9814   -1.3615   -0.1689 C   0  0  0  0  0  0  0  0  0  0  0  0
    3.1454    1.5881   -0.1140 C   0  0  0  0  0  0  0  0  0  0  0  0
    1.6343    1.6366    1.8057 C   0  0  0  0  0  0  0  0  0  0  0  0
   -2.7692   -0.2047   -0.1666 C   0  0  0  0  0  0  0  0  0  0  0  0
    3.8925    2.6116    0.4652 C   0  0  0  0  0  0  0  0  0  0  0  0
    2.3928    2.6645    2.3627 C   0  0  0  0  0  0  0  0  0  0  0  0
   -4.6326   -0.3429   -0.2768 Br  0  0  0  0  0  0  0  0  0  0  0  0
    3.5183    3.1508    1.6967 C   0  0  0  0  0  0  0  0  0  0  0  0
   -0.3005    2.1511    0.0638 H   0  0  0  0  0  0  0  0  0  0  0  0
    0.0342   -2.1700   -0.0862 H   0  0  0  0  0  0  0  0  0  0  0  0
   -2.7779    1.9683   -0.0849 H   0  0  0  0  0  0  0  0  0  0  0  0
   -2.4513   -2.3557   -0.2363 H   0  0  0  0  0  0  0  0  0  0  0  0
    3.4293    1.1493   -1.0809 H   0  0  0  0  0  0  0  0  0  0  0  0
    0.7466    1.2437    2.3219 H   0  0  0  0  0  0  0  0  0  0  0  0
    4.7815    2.9965   -0.0564 H   0  0  0  0  0  0  0  0  0  0  0  0
    2.1019    3.0893    3.3350 H   0  0  0  0  0  0  0  0  0  0  0  0
    4.1127    3.9607    2.1441 H   0  0  0  0  0  0  0  0  0  0  0  0
  1  2  1  0  0  0  0
  1  3  2  0  0  0  0
  1  4  1  0  0  0  0
  2  5  1  0  0  0  0
  3  6  1  0  0  0  0
  3 15  1  0  0  0  0
  4  7  2  0  0  0  0
  4 16  1  0  0  0  0
  5  8  2  0  0  0  0
  5  9  1  0  0  0  0
  6 10  2  0  0  0  0
  6 17  1  0  0  0  0
  7 10  1  0  0  0  0
  7 18  1  0  0  0  0
  8 11  1  0  0  0  0
  8 19  1  0  0  0  0
  9 12  2  0  0  0  0
  9 20  1  0  0  0  0
 10 13  1  0  0  0  0
 11 14  2  0  0  0  0
 11 21  1  0  0  0  0
 12 14  1  0  0  0  0
 12 22  1  0  0  0  0
 14 23  1  0  0  0  0
M  END