1836777.out.mol
  Mrv0541 03111415023D          

 25 26  0  0  0  0            999 V2000
    0.0000    0.0000    0.0000 C   0  0  0  0  0  0  0  0  0  0  0  0
    1.3938    0.0000    0.0000 O   0  0  0  0  0  0  0  0  0  0  0  0
   -0.6989    1.2213    0.0000 C   0  0  0  0  0  0  0  0  0  0  0  0
   -0.6991   -1.2113   -0.1559 C   0  0  0  0  0  0  0  0  0  0  0  0
    2.0161   -0.0800    1.2376 C   0  0  0  0  0  0  0  0  0  0  0  0
   -2.0876    1.2292   -0.1619 C   0  0  0  0  0  0  0  0  0  0  0  0
    0.1071    2.6990    0.1885 Cl  0  0  0  0  0  0  0  0  0  0  0  0
   -2.0878   -1.1982   -0.3175 C   0  0  0  0  0  0  0  0  0  0  0  0
    0.1068   -2.7010   -0.1577 Cl  0  0  0  0  0  0  0  0  0  0  0  0
    3.4229   -0.0757    1.1799 C   0  0  0  0  0  0  0  0  0  0  0  0
    1.3378   -0.1599    2.4598 C   0  0  0  0  0  0  0  0  0  0  0  0
   -2.7711    0.0206   -0.3190 C   0  0  0  0  0  0  0  0  0  0  0  0
    4.1491   -0.1524    2.3594 C   0  0  0  0  0  0  0  0  0  0  0  0
    2.0673   -0.2368    3.6418 C   0  0  0  0  0  0  0  0  0  0  0  0
   -4.4552    0.0333   -0.5145 Cl  0  0  0  0  0  0  0  0  0  0  0  0
    3.4706   -0.2324    3.5901 C   0  0  0  0  0  0  0  0  0  0  0  0
    4.2496   -0.3137    4.8497 N   0  3  0  0  0  0  0  0  0  0  0  0
    5.4506   -0.3088    4.7937 O   0  5  0  0  0  0  0  0  0  0  0  0
    3.6603   -0.3826    5.8956 O   0  0  0  0  0  0  0  0  0  0  0  0
   -2.6368    2.1852   -0.1675 H   0  0  0  0  0  0  0  0  0  0  0  0
   -2.6371   -2.1456   -0.4450 H   0  0  0  0  0  0  0  0  0  0  0  0
    3.9286   -0.0118    0.2050 H   0  0  0  0  0  0  0  0  0  0  0  0
    0.2382   -0.1622    2.4903 H   0  0  0  0  0  0  0  0  0  0  0  0
    5.2531   -0.1507    2.3334 H   0  0  0  0  0  0  0  0  0  0  0  0
    1.5456   -0.3007    4.6128 H   0  0  0  0  0  0  0  0  0  0  0  0
  1  2  1  0  0  0  0
  1  3  2  0  0  0  0
  1  4  1  0  0  0  0
  2  5  1  0  0  0  0
  3  6  1  0  0  0  0
  3  7  1  0  0  0  0
  4  8  2  0  0  0  0
  4  9  1  0  0  0  0
  5 10  2  0  0  0  0
  5 11  1  0  0  0  0
  6 12  2  0  0  0  0
  6 20  1  0  0  0  0
  8 12  1  0  0  0  0
  8 21  1  0  0  0  0
 10 13  1  0  0  0  0
 10 22  1  0  0  0  0
 11 14  2  0  0  0  0
 11 23  1  0  0  0  0
 12 15  1  0  0  0  0
 13 16  2  0  0  0  0
 13 24  1  0  0  0  0
 14 16  1  0  0  0  0
 14 25  1  0  0  0  0
 16 17  1  0  0  0  0
 17 18  1  0  0  0  0
 17 19  2  0  0  0  0
M  CHG  2  17   1  18  -1
M  END