107028.out.mol
  Mrv0541 03111415023D          

  8  7  0  0  0  0            999 V2000
    0.0000    0.0000    0.0000 C   0  0  0  0  0  0  0  0  0  0  0  0
    1.3325    0.0000    0.0000 C   0  0  0  0  0  0  0  0  0  0  0  0
   -2.0234    1.2467    0.0000 O   0  0  0  0  0  0  0  0  0  0  0  0
   -0.7907    1.2395   -0.0003 C   0  0  0  0  0  0  0  0  0  0  0  0
   -0.2065    2.1886   -0.0004 H   0  0  0  0  0  0  0  0  0  0  0  0
   -0.5847   -0.9356    0.0004 H   0  0  0  0  0  0  0  0  0  0  0  0
    1.9288    0.9237   -0.0004 H   0  0  0  0  0  0  0  0  0  0  0  0
    1.9178   -0.9299    0.0004 H   0  0  0  0  0  0  0  0  0  0  0  0
  1  2  2  0  0  0  0
  1  4  1  0  0  0  0
  1  6  1  0  0  0  0
  2  7  1  0  0  0  0
  2  8  1  0  0  0  0
  3  4  2  0  0  0  0
  4  5  1  0  0  0  0
M  END