88857.out.mol
  Mrv0541 03111415023D          

 29 29  0  0  0  0            999 V2000
    0.0000    0.0000    0.0000 C   0  0  0  0  0  0  0  0  0  0  0  0
    1.4264    0.0000    0.0000 C   0  0  0  0  0  0  0  0  0  0  0  0
   -0.6837    1.2052    0.0000 C   0  0  0  0  0  0  0  0  0  0  0  0
   -0.7571   -1.2950   -0.0134 C   0  0  1  0  0  0  0  0  0  0  0  0
    2.1212    1.2353    0.0082 C   0  0  0  0  0  0  0  0  0  0  0  0
    1.9945   -1.2309   -0.0112 O   0  0  0  0  0  0  0  0  0  0  0  0
    0.0198    2.4279    0.0068 C   0  0  0  0  0  0  0  0  0  0  0  0
   -1.6427   -1.4397    1.2206 C   0  0  1  0  0  0  0  0  0  0  0  0
   -1.5945   -1.4023   -1.2754 C   0  0  0  0  0  0  0  0  0  0  0  0
    1.4123    2.4528    0.0121 C   0  0  0  0  0  0  0  0  0  0  0  0
    3.5995    1.3124    0.0127 N   0  3  0  0  0  0  0  0  0  0  0  0
   -0.7392    3.7051    0.0072 N   0  3  0  0  0  0  0  0  0  0  0  0
   -0.8445   -1.6658    2.4779 C   0  0  0  0  0  0  0  0  0  0  0  0
    4.1281    2.3879    0.0192 O   0  5  0  0  0  0  0  0  0  0  0  0
    4.2405    0.2897    0.0099 O   0  0  0  0  0  0  0  0  0  0  0  0
   -1.9397    3.6620   -0.0008 O   0  5  0  0  0  0  0  0  0  0  0  0
   -0.1310    4.7404    0.0155 O   0  0  0  0  0  0  0  0  0  0  0  0
   -1.7907    1.2117   -0.0067 H   0  0  0  0  0  0  0  0  0  0  0  0
   -0.0208   -2.1511   -0.0104 H   0  0  0  0  0  0  0  0  0  0  0  0
    2.9674   -1.1965   -0.0063 H   0  0  0  0  0  0  0  0  0  0  0  0
   -2.2837   -0.5263    1.3354 H   0  0  0  0  0  0  0  0  0  0  0  0
   -2.3334   -2.3102    1.0582 H   0  0  0  0  0  0  0  0  0  0  0  0
   -0.9523   -1.2863   -2.1810 H   0  0  0  0  0  0  0  0  0  0  0  0
   -2.0892   -2.4027   -1.3171 H   0  0  0  0  0  0  0  0  0  0  0  0
   -2.3862   -0.6152   -1.2957 H   0  0  0  0  0  0  0  0  0  0  0  0
    1.9608    3.4179    0.0179 H   0  0  0  0  0  0  0  0  0  0  0  0
   -0.2445   -2.6050    2.4025 H   0  0  0  0  0  0  0  0  0  0  0  0
   -0.1426   -0.8164    2.6598 H   0  0  0  0  0  0  0  0  0  0  0  0
   -1.5283   -1.7533    3.3568 H   0  0  0  0  0  0  0  0  0  0  0  0
  1  2  2  0  0  0  0
  1  3  1  0  0  0  0
  1  4  1  0  0  0  0
  2  5  1  0  0  0  0
  2  6  1  0  0  0  0
  3  7  2  0  0  0  0
  3 18  1  0  0  0  0
  4  8  1  0  0  0  0
  4  9  1  0  0  0  0
  4 19  1  1  0  0  0
  5 10  2  0  0  0  0
  5 11  1  0  0  0  0
  6 20  1  0  0  0  0
  7 10  1  0  0  0  0
  7 12  1  0  0  0  0
  8 13  1  0  0  0  0
  8 21  1  0  0  0  0
  8 22  1  0  0  0  0
  9 23  1  0  0  0  0
  9 24  1  0  0  0  0
  9 25  1  0  0  0  0
 10 26  1  0  0  0  0
 11 14  1  0  0  0  0
 11 15  2  0  0  0  0
 12 16  1  0  0  0  0
 12 17  2  0  0  0  0
 13 27  1  0  0  0  0
 13 28  1  0  0  0  0
 13 29  1  0  0  0  0
M  CHG  4  11   1  12   1  14  -1  16  -1
M  END