205436.out.mol
  Mrv0541 03111415023D          

 27 30  0  0  0  0            999 V2000
    0.0000    0.0000    0.0000 C   0  0  0  0  0  0  0  0  0  0  0  0
    1.4529    0.0000    0.0000 C   0  0  0  0  0  0  0  0  0  0  0  0
   -0.9265    1.0859    0.0000 C   0  0  0  0  0  0  0  0  0  0  0  0
   -0.4909   -1.3210    0.0092 C   0  0  0  0  0  0  0  0  0  0  0  0
    1.9621   -1.3279    0.1108 C   0  0  0  0  0  0  0  0  0  0  0  0
    2.3661    1.0529   -0.1435 C   0  0  0  0  0  0  0  0  0  0  0  0
   -2.3108    0.7880   -0.1438 C   0  0  0  0  0  0  0  0  0  0  0  0
   -0.5569    2.4448    0.1761 C   0  0  0  0  0  0  0  0  0  0  0  0
    0.7295   -2.4814    0.1298 S   0  0  0  0  0  0  0  0  0  0  0  0
   -1.8704   -1.6015   -0.0918 C   0  0  0  0  0  0  0  0  0  0  0  0
    3.3366   -1.5710    0.1574 C   0  0  0  0  0  0  0  0  0  0  0  0
    3.7307    0.7997   -0.1027 C   0  0  0  0  0  0  0  0  0  0  0  0
   -2.7575   -0.5656   -0.1948 C   0  0  0  0  0  0  0  0  0  0  0  0
   -3.2555    1.8457   -0.2075 C   0  0  0  0  0  0  0  0  0  0  0  0
   -1.4921    3.4527    0.1244 C   0  0  0  0  0  0  0  0  0  0  0  0
    4.2182   -0.5046    0.0618 C   0  0  0  0  0  0  0  0  0  0  0  0
   -2.8550    3.1551   -0.0887 C   0  0  0  0  0  0  0  0  0  0  0  0
    2.0250    2.0813   -0.3227 H   0  0  0  0  0  0  0  0  0  0  0  0
    0.4881    2.6990    0.3978 H   0  0  0  0  0  0  0  0  0  0  0  0
   -2.2102   -2.6479   -0.0967 H   0  0  0  0  0  0  0  0  0  0  0  0
    3.7110   -2.6000    0.2618 H   0  0  0  0  0  0  0  0  0  0  0  0
    4.4423    1.6323   -0.2084 H   0  0  0  0  0  0  0  0  0  0  0  0
   -3.8360   -0.7575   -0.3041 H   0  0  0  0  0  0  0  0  0  0  0  0
   -4.3180    1.5943   -0.3473 H   0  0  0  0  0  0  0  0  0  0  0  0
   -1.1866    4.5011    0.2591 H   0  0  0  0  0  0  0  0  0  0  0  0
    5.3031   -0.6805    0.1019 H   0  0  0  0  0  0  0  0  0  0  0  0
   -3.5857    3.9750   -0.1434 H   0  0  0  0  0  0  0  0  0  0  0  0
  1  2  1  0  0  0  0
  1  3  1  0  0  0  0
  1  4  2  0  0  0  0
  2  5  2  0  0  0  0
  2  6  1  0  0  0  0
  3  7  2  0  0  0  0
  3  8  1  0  0  0  0
  4  9  1  0  0  0  0
  4 10  1  0  0  0  0
  5  9  1  0  0  0  0
  5 11  1  0  0  0  0
  6 12  2  0  0  0  0
  6 18  1  0  0  0  0
  7 13  1  0  0  0  0
  7 14  1  0  0  0  0
  8 15  2  0  0  0  0
  8 19  1  0  0  0  0
 10 13  2  0  0  0  0
 10 20  1  0  0  0  0
 11 16  2  0  0  0  0
 11 21  1  0  0  0  0
 12 16  1  0  0  0  0
 12 22  1  0  0  0  0
 13 23  1  0  0  0  0
 14 17  2  0  0  0  0
 14 24  1  0  0  0  0
 15 17  1  0  0  0  0
 15 25  1  0  0  0  0
 16 26  1  0  0  0  0
 17 27  1  0  0  0  0
M  END