2257092.out.mol
  Mrv0541 03111415023D          

 20 20  0  0  0  0            999 V2000
    0.0000    0.0000    0.0000 C   0  0  0  0  0  0  0  0  0  0  0  0
    1.4862    0.0000    0.0000 C   0  0  1  0  0  0  0  0  0  0  0  0
   -0.7104    1.2057    0.0000 C   0  0  0  0  0  0  0  0  0  0  0  0
   -0.7050   -1.2101   -0.0283 C   0  0  0  0  0  0  0  0  0  0  0  0
    2.0879   -0.6232    1.2658 C   0  0  1  0  0  0  0  0  0  0  0  0
   -2.1047    1.2005   -0.0192 C   0  0  0  0  0  0  0  0  0  0  0  0
   -2.0980   -1.2129   -0.0467 C   0  0  0  0  0  0  0  0  0  0  0  0
    2.0098    0.1359    2.4535 N   0  0  0  0  0  0  0  0  0  0  0  0
   -2.8005   -0.0075   -0.0411 C   0  0  0  0  0  0  0  0  0  0  0  0
    1.2242    0.7890    3.1243 C   0  0  0  0  0  0  0  0  0  0  0  0
    0.4761    1.6086    4.0920 S   0  0  0  0  0  0  0  0  0  0  0  0
    1.8526   -0.6118   -0.8696 H   0  0  0  0  0  0  0  0  0  0  0  0
    1.8778    1.0427   -0.1375 H   0  0  0  0  0  0  0  0  0  0  0  0
   -0.1678    2.1631    0.0154 H   0  0  0  0  0  0  0  0  0  0  0  0
   -0.1544   -2.1626   -0.0387 H   0  0  0  0  0  0  0  0  0  0  0  0
    1.6001   -1.6283    1.4433 H   0  0  0  0  0  0  0  0  0  0  0  0
    3.1905   -0.7944    1.0847 H   0  0  0  0  0  0  0  0  0  0  0  0
   -2.6549    2.1531   -0.0154 H   0  0  0  0  0  0  0  0  0  0  0  0
   -2.6439   -2.1677   -0.0666 H   0  0  0  0  0  0  0  0  0  0  0  0
   -3.9001   -0.0106   -0.0544 H   0  0  0  0  0  0  0  0  0  0  0  0
  1  2  1  0  0  0  0
  1  3  1  0  0  0  0
  1  4  2  0  0  0  0
  2  5  1  0  0  0  0
  2 12  1  0  0  0  0
  2 13  1  0  0  0  0
  3  6  2  0  0  0  0
  3 14  1  0  0  0  0
  4  7  1  0  0  0  0
  4 15  1  0  0  0  0
  5  8  1  0  0  0  0
  5 16  1  0  0  0  0
  5 17  1  0  0  0  0
  6  9  1  0  0  0  0
  6 18  1  0  0  0  0
  7  9  2  0  0  0  0
  7 19  1  0  0  0  0
  8 10  2  0  0  0  0
  9 20  1  0  0  0  0
 10 11  2  0  0  0  0
M  END