107039.out.mol
  Mrv0541 03111415023D          

 12 11  0  0  0  0            999 V2000
    0.0000    0.0000    0.0000 C   0  0  1  0  0  0  0  0  0  0  0  0
    1.5070    0.0000    0.0000 C   0  0  1  0  0  0  0  0  0  0  0  0
   -0.5485    1.4049    0.0000 C   0  0  0  0  0  0  0  0  0  0  0  0
    2.2138   -1.6170    0.0924 S   0  0  0  0  0  0  0  0  0  0  0  0
   -0.3772   -0.5481   -0.9044 H   0  0  0  0  0  0  0  0  0  0  0  0
   -0.3767   -0.5513    0.9026 H   0  0  0  0  0  0  0  0  0  0  0  0
    1.8899    0.5376   -0.9012 H   0  0  0  0  0  0  0  0  0  0  0  0
    1.8975    0.5276    0.9071 H   0  0  0  0  0  0  0  0  0  0  0  0
   -0.2094    1.9603    0.9077 H   0  0  0  0  0  0  0  0  0  0  0  0
   -0.2034    1.9644   -0.9029 H   0  0  0  0  0  0  0  0  0  0  0  0
   -1.6650    1.3823   -0.0036 H   0  0  0  0  0  0  0  0  0  0  0  0
    1.6640   -2.1610   -0.9782 H   0  0  0  0  0  0  0  0  0  0  0  0
  1  2  1  0  0  0  0
  1  3  1  0  0  0  0
  1  5  1  0  0  0  0
  1  6  1  0  0  0  0
  2  4  1  0  0  0  0
  2  7  1  0  0  0  0
  2  8  1  0  0  0  0
  3  9  1  0  0  0  0
  3 10  1  0  0  0  0
  3 11  1  0  0  0  0
  4 12  1  0  0  0  0
M  END