108429.out.mol
  Mrv0541 03111415023D          

 14 14  0  0  0  0            999 V2000
    0.0000    0.0000    0.0000 C   0  0  0  0  0  0  0  0  0  0  0  0
    1.4146    0.0000    0.0000 C   0  0  0  0  0  0  0  0  0  0  0  0
   -0.6907    1.2104    0.0000 C   0  0  0  0  0  0  0  0  0  0  0  0
    2.0935    1.2420   -0.0165 C   0  0  0  0  0  0  0  0  0  0  0  0
    2.1237   -1.2001    0.0943 N   0  0  1  0  0  0  0  0  0  0  0  0
   -0.0162    2.4337   -0.0080 C   0  0  0  0  0  0  0  0  0  0  0  0
   -2.3936    1.1919    0.0051 Cl  0  0  0  0  0  0  0  0  0  0  0  0
    1.3776    2.4325   -0.0158 C   0  0  0  0  0  0  0  0  0  0  0  0
   -0.5559   -0.9496    0.0105 H   0  0  0  0  0  0  0  0  0  0  0  0
    3.1932    1.2699   -0.0196 H   0  0  0  0  0  0  0  0  0  0  0  0
    1.6249   -2.0037   -0.2156 H   0  0  0  0  0  0  0  0  0  0  0  0
    3.0591   -1.1566   -0.2431 H   0  0  0  0  0  0  0  0  0  0  0  0
   -0.5732    3.3811   -0.0083 H   0  0  0  0  0  0  0  0  0  0  0  0
    1.9196    3.3908   -0.0227 H   0  0  0  0  0  0  0  0  0  0  0  0
  1  2  2  0  0  0  0
  1  3  1  0  0  0  0
  1  9  1  0  0  0  0
  2  4  1  0  0  0  0
  2  5  1  0  0  0  0
  3  6  2  0  0  0  0
  3  7  1  0  0  0  0
  4  8  2  0  0  0  0
  4 10  1  0  0  0  0
  5 11  1  0  0  0  0
  5 12  1  0  0  0  0
  6  8  1  0  0  0  0
  6 13  1  0  0  0  0
  8 14  1  0  0  0  0
M  END