58902.out.mol
  Mrv0541 03111415023D          

 13 13  0  0  0  0            999 V2000
    0.0000    0.0000    0.0000 C   0  0  0  0  0  0  0  0  0  0  0  0
    1.4091    0.0000    0.0000 C   0  0  0  0  0  0  0  0  0  0  0  0
   -0.7064    1.2125    0.0000 C   0  0  0  0  0  0  0  0  0  0  0  0
   -0.8406   -1.4770   -0.0007 Cl  0  0  0  0  0  0  0  0  0  0  0  0
    2.1086    1.2261    0.0005 C   0  0  0  0  0  0  0  0  0  0  0  0
    2.1576   -1.1473   -0.0005 O   0  0  0  0  0  0  0  0  0  0  0  0
    0.0011    2.4237    0.0005 C   0  0  0  0  0  0  0  0  0  0  0  0
   -2.3977    1.2113   -0.0007 Cl  0  0  0  0  0  0  0  0  0  0  0  0
    1.3986    2.4258    0.0005 C   0  0  0  0  0  0  0  0  0  0  0  0
    3.8022    1.2808    0.0012 Cl  0  0  0  0  0  0  0  0  0  0  0  0
   -0.8140    3.9098    0.0012 Cl  0  0  0  0  0  0  0  0  0  0  0  0
    1.5556   -1.9108   -0.0013 H   0  0  0  0  0  0  0  0  0  0  0  0
    1.9445    3.3848    0.0014 H   0  0  0  0  0  0  0  0  0  0  0  0
  1  2  2  0  0  0  0
  1  3  1  0  0  0  0
  1  4  1  0  0  0  0
  2  5  1  0  0  0  0
  2  6  1  0  0  0  0
  3  7  2  0  0  0  0
  3  8  1  0  0  0  0
  5  9  2  0  0  0  0
  5 10  1  0  0  0  0
  6 12  1  0  0  0  0
  7  9  1  0  0  0  0
  7 11  1  0  0  0  0
  9 13  1  0  0  0  0
M  END