589162.out.mol
  Mrv0541 03111415023D          

 20 20  0  0  0  0            999 V2000
    0.0000    0.0000    0.0000 C   0  0  0  0  0  0  0  0  0  0  0  0
    1.3994    0.0000    0.0000 C   0  0  0  0  0  0  0  0  0  0  0  0
   -0.6724    1.2258    0.0000 C   0  0  0  0  0  0  0  0  0  0  0  0
   -0.7523   -1.2835   -0.0095 C   0  0  1  0  0  0  0  0  0  0  0  0
    2.1162    1.1891    0.0005 C   0  0  0  0  0  0  0  0  0  0  0  0
    0.0270    2.4265    0.0005 C   0  0  0  0  0  0  0  0  0  0  0  0
   -0.6828   -1.9935    1.3216 C   0  0  0  0  0  0  0  0  0  0  0  0
    1.4408    2.4321    0.0093 C   0  0  0  0  0  0  0  0  0  0  0  0
    2.1529    3.6339    0.1050 N   0  0  1  0  0  0  0  0  0  0  0  0
    1.9401   -0.9591   -0.0004 H   0  0  0  0  0  0  0  0  0  0  0  0
   -1.7733    1.2441   -0.0018 H   0  0  0  0  0  0  0  0  0  0  0  0
   -1.8275   -1.0939   -0.2732 H   0  0  0  0  0  0  0  0  0  0  0  0
   -0.3299   -1.9515   -0.8086 H   0  0  0  0  0  0  0  0  0  0  0  0
    3.2158    1.1581    0.0039 H   0  0  0  0  0  0  0  0  0  0  0  0
   -0.5292    3.3756    0.0038 H   0  0  0  0  0  0  0  0  0  0  0  0
    0.3787   -2.2021    1.5994 H   0  0  0  0  0  0  0  0  0  0  0  0
   -1.1391   -1.3687    2.1266 H   0  0  0  0  0  0  0  0  0  0  0  0
   -1.2344   -2.9630    1.2691 H   0  0  0  0  0  0  0  0  0  0  0  0
    3.0870    3.5816   -0.2365 H   0  0  0  0  0  0  0  0  0  0  0  0
    1.6579    4.4283   -0.2356 H   0  0  0  0  0  0  0  0  0  0  0  0
  1  2  2  0  0  0  0
  1  3  1  0  0  0  0
  1  4  1  0  0  0  0
  2  5  1  0  0  0  0
  2 10  1  0  0  0  0
  3  6  2  0  0  0  0
  3 11  1  0  0  0  0
  4  7  1  0  0  0  0
  4 12  1  0  0  0  0
  4 13  1  0  0  0  0
  5  8  2  0  0  0  0
  5 14  1  0  0  0  0
  6  8  1  0  0  0  0
  6 15  1  0  0  0  0
  7 16  1  0  0  0  0
  7 17  1  0  0  0  0
  7 18  1  0  0  0  0
  8  9  1  0  0  0  0
  9 19  1  0  0  0  0
  9 20  1  0  0  0  0
M  END