103720.out.mol
  Mrv0541 03111415023D          

 14 14  0  0  0  0            999 V2000
    0.0000    0.0000    0.0000 C   0  0  0  0  0  0  0  0  0  0  0  0
    1.4146    0.0000    0.0000 C   0  0  0  0  0  0  0  0  0  0  0  0
   -0.6873    1.2367    0.0000 C   0  0  0  0  0  0  0  0  0  0  0  0
   -0.7434   -1.1710    0.0005 N   0  0  0  0  0  0  0  0  0  0  0  0
    2.1106    1.2045    0.0005 C   0  0  0  0  0  0  0  0  0  0  0  0
    0.0318    2.4272   -0.0005 C   0  0  0  0  0  0  0  0  0  0  0  0
   -0.5366   -2.3852   -0.0007 C   0  0  0  0  0  0  0  0  0  0  0  0
    1.4264    2.4189    0.0016 C   0  0  0  0  0  0  0  0  0  0  0  0
   -0.5451   -3.8485   -0.0019 S   0  0  0  0  0  0  0  0  0  0  0  0
    1.9701   -0.9498    0.0004 H   0  0  0  0  0  0  0  0  0  0  0  0
   -1.7880    1.2595   -0.0004 H   0  0  0  0  0  0  0  0  0  0  0  0
    3.2112    1.1932    0.0010 H   0  0  0  0  0  0  0  0  0  0  0  0
   -0.5108    3.3849   -0.0010 H   0  0  0  0  0  0  0  0  0  0  0  0
    1.9839    3.3667    0.0025 H   0  0  0  0  0  0  0  0  0  0  0  0
  1  2  2  0  0  0  0
  1  3  1  0  0  0  0
  1  4  1  0  0  0  0
  2  5  1  0  0  0  0
  2 10  1  0  0  0  0
  3  6  2  0  0  0  0
  3 11  1  0  0  0  0
  4  7  2  0  0  0  0
  5  8  2  0  0  0  0
  5 12  1  0  0  0  0
  6  8  1  0  0  0  0
  6 13  1  0  0  0  0
  7  9  2  0  0  0  0
  8 14  1  0  0  0  0
M  END