6317186.out.mol
  Mrv0541 03111415023D          

  9  8  0  0  0  0            999 V2000
    0.0000    0.0000    0.0000 C   0  0  1  0  0  0  0  0  0  0  0  0
    1.7540    0.0000    0.0000 S   0  0  0  0  0  0  0  0  0  0  0  0
   -0.3506    1.7066    0.0000 S   0  0  0  0  0  0  0  0  0  0  0  0
    2.1885   -1.5432    0.1573 C   0  0  0  0  0  0  0  0  0  0  0  0
   -0.6815    2.0325   -1.5459 C   0  0  0  0  0  0  0  0  0  0  0  0
    2.5508   -2.6498    0.2714 N   0  0  0  0  0  0  0  0  0  0  0  0
   -0.9350    2.3276   -2.6486 N   0  0  0  0  0  0  0  0  0  0  0  0
   -0.4331   -0.5667   -0.8550 H   0  0  0  0  0  0  0  0  0  0  0  0
   -0.4233   -0.4411    0.9353 H   0  0  0  0  0  0  0  0  0  0  0  0
  1  2  1  0  0  0  0
  1  3  1  0  0  0  0
  1  8  1  0  0  0  0
  1  9  1  0  0  0  0
  2  4  1  0  0  0  0
  3  5  1  0  0  0  0
  4  6  3  0  0  0  0
  5  7  3  0  0  0  0
M  END