10605217.out.mol
  Mrv0541 03111415023D          

 23 24  0  0  0  0            999 V2000
    0.0000    0.0000    0.0000 C   0  0  0  0  0  0  0  0  0  0  0  0
    1.4532    0.0000    0.0000 C   0  0  0  0  0  0  0  0  0  0  0  0
   -0.3943    1.3403    0.0000 N   0  0  0  0  0  0  0  0  0  0  0  0
   -0.7309   -1.1934   -0.0005 C   0  0  0  0  0  0  0  0  0  0  0  0
    1.9348    1.3208    0.0006 N   0  0  0  0  0  0  0  0  0  0  0  0
    2.1387   -1.2237    0.0005 C   0  0  0  0  0  0  0  0  0  0  0  0
    0.8074    2.1000    0.0015 C   0  0  0  0  0  0  0  0  0  0  0  0
   -0.0118   -2.3801   -0.0016 C   0  0  0  0  0  0  0  0  0  0  0  0
    1.3941   -2.3936    0.0005 C   0  0  0  0  0  0  0  0  0  0  0  0
    0.8306    3.5063    0.0029 N   0  0  0  0  0  0  0  0  0  0  0  0
   -0.3105    4.2833    0.0043 C   0  0  0  0  0  0  0  0  0  0  0  0
   -0.0142    5.6291    0.0061 O   0  0  0  0  0  0  0  0  0  0  0  0
   -1.5004    3.9246    0.0043 O   0  0  0  0  0  0  0  0  0  0  0  0
   -1.1512    6.5000    0.0071 C   0  0  0  0  0  0  0  0  0  0  0  0
   -1.3147    1.7046    0.0003 H   0  0  0  0  0  0  0  0  0  0  0  0
   -1.8286   -1.1893   -0.0001 H   0  0  0  0  0  0  0  0  0  0  0  0
    3.2376   -1.2442    0.0001 H   0  0  0  0  0  0  0  0  0  0  0  0
   -0.5543   -3.3376   -0.0016 H   0  0  0  0  0  0  0  0  0  0  0  0
    1.9143   -3.3635    0.0014 H   0  0  0  0  0  0  0  0  0  0  0  0
    1.7245    3.9499    0.0036 H   0  0  0  0  0  0  0  0  0  0  0  0
   -0.6867    7.5174    0.0088 H   0  0  0  0  0  0  0  0  0  0  0  0
   -1.7641    6.3260   -0.9094 H   0  0  0  0  0  0  0  0  0  0  0  0
   -1.7648    6.3232    0.9227 H   0  0  0  0  0  0  0  0  0  0  0  0
  1  2  2  0  0  0  0
  1  3  1  0  0  0  0
  1  4  1  0  0  0  0
  2  5  1  0  0  0  0
  2  6  1  0  0  0  0
  3  7  1  0  0  0  0
  3 15  1  0  0  0  0
  4  8  2  0  0  0  0
  4 16  1  0  0  0  0
  5  7  2  0  0  0  0
  6  9  2  0  0  0  0
  6 17  1  0  0  0  0
  7 10  1  0  0  0  0
  8  9  1  0  0  0  0
  8 18  1  0  0  0  0
  9 19  1  0  0  0  0
 10 11  1  0  0  0  0
 10 20  1  0  0  0  0
 11 12  1  0  0  0  0
 11 13  2  0  0  0  0
 12 14  1  0  0  0  0
 14 21  1  0  0  0  0
 14 22  1  0  0  0  0
 14 23  1  0  0  0  0
M  END