4044659.out.mol
  Mrv0541 03111415023D          

 16 16  0  0  0  0            999 V2000
    0.0000    0.0000    0.0000 C   0  0  0  0  0  0  0  0  0  0  0  0
    1.4136    0.0000    0.0000 C   0  0  0  0  0  0  0  0  0  0  0  0
   -0.6791    1.2418    0.0000 C   0  0  0  0  0  0  0  0  0  0  0  0
   -0.7485   -1.1654   -0.0005 N   0  0  0  0  0  0  0  0  0  0  0  0
    2.1210    1.1928   -0.0005 C   0  0  0  0  0  0  0  0  0  0  0  0
    0.0276    2.4335   -0.0005 C   0  0  0  0  0  0  0  0  0  0  0  0
   -0.5366   -2.3810    0.0004 C   0  0  0  0  0  0  0  0  0  0  0  0
    1.4430    2.4332   -0.0005 C   0  0  0  0  0  0  0  0  0  0  0  0
   -0.5407   -3.8417    0.0013 S   0  0  0  0  0  0  0  0  0  0  0  0
    2.1066    3.6490   -0.0005 N   0  0  0  0  0  0  0  0  0  0  0  0
    3.2749    4.0461   -0.0041 C   0  0  0  0  0  0  0  0  0  0  0  0
    4.5545    4.7505   -0.0076 S   0  0  0  0  0  0  0  0  0  0  0  0
    1.9684   -0.9514    0.0004 H   0  0  0  0  0  0  0  0  0  0  0  0
   -1.7810    1.2680    0.0004 H   0  0  0  0  0  0  0  0  0  0  0  0
    3.2219    1.1623   -0.0010 H   0  0  0  0  0  0  0  0  0  0  0  0
   -0.5238    3.3878   -0.0010 H   0  0  0  0  0  0  0  0  0  0  0  0
  1  2  2  0  0  0  0
  1  3  1  0  0  0  0
  1  4  1  0  0  0  0
  2  5  1  0  0  0  0
  2 13  1  0  0  0  0
  3  6  2  0  0  0  0
  3 14  1  0  0  0  0
  4  7  2  0  0  0  0
  5  8  2  0  0  0  0
  5 15  1  0  0  0  0
  6  8  1  0  0  0  0
  6 16  1  0  0  0  0
  7  9  2  0  0  0  0
  8 10  1  0  0  0  0
 10 11  2  0  0  0  0
 11 12  2  0  0  0  0
M  END