622786.out.mol
  Mrv0541 03111415023D          

 17 17  0  0  0  0            999 V2000
    0.0000    0.0000    0.0000 C   0  0  0  0  0  0  0  0  0  0  0  0
    1.3983    0.0000    0.0000 C   0  0  0  0  0  0  0  0  0  0  0  0
   -0.6944    1.2137    0.0000 C   0  0  0  0  0  0  0  0  0  0  0  0
   -0.7536   -1.2992   -0.0235 C   0  0  1  0  0  0  0  0  0  0  0  0
    2.0963    1.2069   -0.0030 C   0  0  0  0  0  0  0  0  0  0  0  0
    0.0066    2.4189   -0.0029 C   0  0  0  0  0  0  0  0  0  0  0  0
   -1.0866   -1.8613    1.2336 N   0  0  0  0  0  0  0  0  0  0  0  0
    1.4016    2.4166   -0.0041 C   0  0  0  0  0  0  0  0  0  0  0  0
   -0.9490   -1.6327    2.4289 C   0  0  0  0  0  0  0  0  0  0  0  0
   -0.9078   -1.5668    3.8972 S   0  0  0  0  0  0  0  0  0  0  0  0
    1.9480   -0.9534    0.0004 H   0  0  0  0  0  0  0  0  0  0  0  0
   -1.7949    1.2173    0.0004 H   0  0  0  0  0  0  0  0  0  0  0  0
   -1.7257   -1.1578   -0.5851 H   0  0  0  0  0  0  0  0  0  0  0  0
   -0.1445   -2.0754   -0.5775 H   0  0  0  0  0  0  0  0  0  0  0  0
    3.1963    1.2035   -0.0034 H   0  0  0  0  0  0  0  0  0  0  0  0
   -0.5426    3.3721   -0.0033 H   0  0  0  0  0  0  0  0  0  0  0  0
    1.9535    3.3682   -0.0060 H   0  0  0  0  0  0  0  0  0  0  0  0
  1  2  1  0  0  0  0
  1  3  2  0  0  0  0
  1  4  1  0  0  0  0
  2  5  2  0  0  0  0
  2 11  1  0  0  0  0
  3  6  1  0  0  0  0
  3 12  1  0  0  0  0
  4  7  1  0  0  0  0
  4 13  1  0  0  0  0
  4 14  1  0  0  0  0
  5  8  1  0  0  0  0
  5 15  1  0  0  0  0
  6  8  2  0  0  0  0
  6 16  1  0  0  0  0
  7  9  2  0  0  0  0
  8 17  1  0  0  0  0
  9 10  2  0  0  0  0
M  END