2437798.out.mol
  Mrv0541 03111415023D          

 22 23  0  0  0  0            999 V2000
    0.0000    0.0000    0.0000 C   0  0  0  0  0  0  0  0  0  0  0  0
    1.4663    0.0000    0.0000 C   0  0  0  0  0  0  0  0  0  0  0  0
   -0.7380    1.1946    0.0000 C   0  0  0  0  0  0  0  0  0  0  0  0
   -0.6879   -1.2210   -0.0125 C   0  0  0  0  0  0  0  0  0  0  0  0
    2.2043   -0.0613    1.1930 C   0  0  0  0  0  0  0  0  0  0  0  0
    2.1541    0.0503   -1.2200 C   0  0  0  0  0  0  0  0  0  0  0  0
   -2.1368    1.1698   -0.0117 C   0  0  0  0  0  0  0  0  0  0  0  0
    0.0435    2.7028    0.0155 Cl  0  0  0  0  0  0  0  0  0  0  0  0
   -2.0790   -1.2581   -0.0249 C   0  0  0  0  0  0  0  0  0  0  0  0
    3.6031   -0.0714    1.1676 C   0  0  0  0  0  0  0  0  0  0  0  0
    1.4228   -0.1236    2.7000 Cl  0  0  0  0  0  0  0  0  0  0  0  0
    3.5452    0.0402   -1.2577 C   0  0  0  0  0  0  0  0  0  0  0  0
   -2.7996   -0.0594   -0.0246 C   0  0  0  0  0  0  0  0  0  0  0  0
    4.2659   -0.0210   -0.0606 C   0  0  0  0  0  0  0  0  0  0  0  0
   -4.4976   -0.0951   -0.0395 Cl  0  0  0  0  0  0  0  0  0  0  0  0
    5.9638   -0.0337   -0.0971 Cl  0  0  0  0  0  0  0  0  0  0  0  0
   -0.1168   -2.1627   -0.0091 H   0  0  0  0  0  0  0  0  0  0  0  0
    1.5831    0.1019   -2.1603 H   0  0  0  0  0  0  0  0  0  0  0  0
   -2.7076    2.1120   -0.0093 H   0  0  0  0  0  0  0  0  0  0  0  0
   -2.6053   -2.2248   -0.0332 H   0  0  0  0  0  0  0  0  0  0  0  0
    4.1739   -0.1173    2.1087 H   0  0  0  0  0  0  0  0  0  0  0  0
    4.0715    0.0816   -2.2236 H   0  0  0  0  0  0  0  0  0  0  0  0
  1  2  1  0  0  0  0
  1  3  2  0  0  0  0
  1  4  1  0  0  0  0
  2  5  2  0  0  0  0
  2  6  1  0  0  0  0
  3  7  1  0  0  0  0
  3  8  1  0  0  0  0
  4  9  2  0  0  0  0
  4 17  1  0  0  0  0
  5 10  1  0  0  0  0
  5 11  1  0  0  0  0
  6 12  2  0  0  0  0
  6 18  1  0  0  0  0
  7 13  2  0  0  0  0
  7 19  1  0  0  0  0
  9 13  1  0  0  0  0
  9 20  1  0  0  0  0
 10 14  2  0  0  0  0
 10 21  1  0  0  0  0
 12 14  1  0  0  0  0
 12 22  1  0  0  0  0
 13 15  1  0  0  0  0
 14 16  1  0  0  0  0
M  END