121299.out.mol
  Mrv0541 03111415023D          

 55 56  0  0  0  0            999 V2000
    0.0000    0.0000    0.0000 C   0  0  2  0  0  0  0  0  0  0  0  0
    1.5137    0.0000    0.0000 C   0  0  2  0  0  0  0  0  0  0  0  0
    0.7571    1.3160    0.0000 C   0  0  1  0  0  0  0  0  0  0  0  0
   -0.7027   -0.4648    1.1943 C   0  0  0  0  0  0  0  0  0  0  0  0
    2.2122   -0.4761   -1.2129 C   0  0  0  0  0  0  0  0  0  0  0  0
    0.6966    2.1492   -1.2402 C   0  0  0  0  0  0  0  0  0  0  0  0
    0.8266    2.1327    1.2518 C   0  0  0  0  0  0  0  0  0  0  0  0
   -2.0366   -0.6174    1.2936 C   0  0  0  0  0  0  0  0  0  0  0  0
    3.5054   -0.8444   -0.9424 O   0  0  0  0  0  0  0  0  0  0  0  0
    1.7873   -0.5893   -2.3646 O   0  0  0  0  0  0  0  0  0  0  0  0
   -2.5797   -1.1162    2.5734 C   0  0  0  0  0  0  0  0  0  0  0  0
   -3.0242   -0.3305    0.2306 C   0  0  0  0  0  0  0  0  0  0  0  0
    4.3200   -1.3299   -2.0179 C   0  0  2  0  0  0  0  0  0  0  0  0
   -3.9404   -1.2779    2.5799 O   0  0  0  0  0  0  0  0  0  0  0  0
   -1.9635   -1.3948    3.6073 O   0  0  0  0  0  0  0  0  0  0  0  0
    4.9264   -2.6648   -1.6162 C   0  0  0  0  0  0  0  0  0  0  0  0
    5.5201   -0.3804   -2.1963 C   0  0  1  0  0  0  0  0  0  0  0  0
   -4.5171   -1.7614    3.7943 C   0  0  0  0  0  0  0  0  0  0  0  0
    6.2796   -2.6147   -1.6317 C   0  0  0  0  0  0  0  0  0  0  0  0
    4.0536   -3.7979   -1.2938 C   0  0  0  0  0  0  0  0  0  0  0  0
    6.7468   -1.2447   -1.9843 C   0  0  0  0  0  0  0  0  0  0  0  0
    7.2419   -3.6956   -1.3329 C   0  0  1  0  0  0  0  0  0  0  0  0
    7.9117   -0.8665   -2.0872 O   0  0  0  0  0  0  0  0  0  0  0  0
    7.4860   -4.5751   -2.5050 C   0  0  0  0  0  0  0  0  0  0  0  0
    7.4520   -5.9130   -2.4388 C   0  0  0  0  0  0  0  0  0  0  0  0
    7.7245   -6.7671   -3.5782 C   0  0  0  0  0  0  0  0  0  0  0  0
    7.6956   -8.1006   -3.5201 C   0  0  0  0  0  0  0  0  0  0  0  0
    2.0507   -0.2790    0.9318 H   0  0  0  0  0  0  0  0  0  0  0  0
   -0.4914   -0.2834   -0.9585 H   0  0  0  0  0  0  0  0  0  0  0  0
   -0.0646   -0.7093    2.0665 H   0  0  0  0  0  0  0  0  0  0  0  0
   -0.2422    2.7558   -1.2402 H   0  0  0  0  0  0  0  0  0  0  0  0
    1.5691    2.8469   -1.2774 H   0  0  0  0  0  0  0  0  0  0  0  0
    0.7094    1.5116   -2.1592 H   0  0  0  0  0  0  0  0  0  0  0  0
    0.8366    1.4843    2.1616 H   0  0  0  0  0  0  0  0  0  0  0  0
    1.7548    2.7555    1.2481 H   0  0  0  0  0  0  0  0  0  0  0  0
   -0.0579    2.8136    1.3115 H   0  0  0  0  0  0  0  0  0  0  0  0
   -2.5428    0.0958   -0.6818 H   0  0  0  0  0  0  0  0  0  0  0  0
   -3.5634   -1.2710   -0.0495 H   0  0  0  0  0  0  0  0  0  0  0  0
   -3.7858    0.3988    0.6073 H   0  0  0  0  0  0  0  0  0  0  0  0
    3.7223   -1.4346   -2.9631 H   0  0  0  0  0  0  0  0  0  0  0  0
    5.5295    0.0726   -3.2170 H   0  0  0  0  0  0  0  0  0  0  0  0
    5.4956    0.4433   -1.4395 H   0  0  0  0  0  0  0  0  0  0  0  0
   -5.6095   -1.8124    3.5634 H   0  0  0  0  0  0  0  0  0  0  0  0
   -4.1017   -2.7684    4.0390 H   0  0  0  0  0  0  0  0  0  0  0  0
   -4.3061   -1.0481    4.6268 H   0  0  0  0  0  0  0  0  0  0  0  0
    3.5484   -4.1695   -2.2222 H   0  0  0  0  0  0  0  0  0  0  0  0
    4.6324   -4.6426   -0.8445 H   0  0  0  0  0  0  0  0  0  0  0  0
    3.2626   -3.4752   -0.5697 H   0  0  0  0  0  0  0  0  0  0  0  0
    8.2252   -3.2292   -1.0336 H   0  0  0  0  0  0  0  0  0  0  0  0
    6.8730   -4.2961   -0.4560 H   0  0  0  0  0  0  0  0  0  0  0  0
    7.7232   -4.0512   -3.4454 H   0  0  0  0  0  0  0  0  0  0  0  0
    7.2132   -6.4274   -1.4917 H   0  0  0  0  0  0  0  0  0  0  0  0
    7.9652   -6.2499   -4.5238 H   0  0  0  0  0  0  0  0  0  0  0  0
    7.4625   -8.6514   -2.5996 H   0  0  0  0  0  0  0  0  0  0  0  0
    7.9060   -8.7266   -4.3966 H   0  0  0  0  0  0  0  0  0  0  0  0
  1  2  1  0  0  0  0
  1  3  1  0  0  0  0
  1  4  1  0  0  0  0
  1 29  1  6  0  0  0
  2  3  1  0  0  0  0
  2  5  1  0  0  0  0
  2 28  1  1  0  0  0
  3  6  1  0  0  0  0
  3  7  1  0  0  0  0
  4  8  2  0  0  0  0
  4 30  1  0  0  0  0
  5  9  1  0  0  0  0
  5 10  2  0  0  0  0
  6 31  1  0  0  0  0
  6 32  1  0  0  0  0
  6 33  1  0  0  0  0
  7 34  1  0  0  0  0
  7 35  1  0  0  0  0
  7 36  1  0  0  0  0
  8 11  1  0  0  0  0
  8 12  1  0  0  0  0
  9 13  1  0  0  0  0
 11 14  1  0  0  0  0
 11 15  2  0  0  0  0
 12 37  1  0  0  0  0
 12 38  1  0  0  0  0
 12 39  1  0  0  0  0
 13 16  1  0  0  0  0
 13 17  1  0  0  0  0
 13 40  1  6  0  0  0
 14 18  1  0  0  0  0
 16 19  2  0  0  0  0
 16 20  1  0  0  0  0
 17 21  1  0  0  0  0
 17 41  1  0  0  0  0
 17 42  1  0  0  0  0
 18 43  1  0  0  0  0
 18 44  1  0  0  0  0
 18 45  1  0  0  0  0
 19 21  1  0  0  0  0
 19 22  1  0  0  0  0
 20 46  1  0  0  0  0
 20 47  1  0  0  0  0
 20 48  1  0  0  0  0
 21 23  2  0  0  0  0
 22 24  1  0  0  0  0
 22 49  1  0  0  0  0
 22 50  1  0  0  0  0
 24 25  2  0  0  0  0
 24 51  1  0  0  0  0
 25 26  1  0  0  0  0
 25 52  1  0  0  0  0
 26 27  2  0  0  0  0
 26 53  1  0  0  0  0
 27 54  1  0  0  0  0
 27 55  1  0  0  0  0
M  END