118796.out.mol
  Mrv0541 03111415023D          

 13 13  0  0  0  0            999 V2000
    0.0000    0.0000    0.0000 C   0  0  0  0  0  0  0  0  0  0  0  0
    1.4107    0.0000    0.0000 C   0  0  0  0  0  0  0  0  0  0  0  0
   -0.7041    1.2249    0.0000 C   0  0  0  0  0  0  0  0  0  0  0  0
   -0.7458   -1.1467   -0.0005 O   0  0  0  0  0  0  0  0  0  0  0  0
    2.1042    1.2111   -0.0005 C   0  0  0  0  0  0  0  0  0  0  0  0
    2.3983   -1.5939    0.0007 Br  0  0  0  0  0  0  0  0  0  0  0  0
    0.0116    2.4224   -0.0005 C   0  0  0  0  0  0  0  0  0  0  0  0
   -2.5747    1.3175    0.0007 Br  0  0  0  0  0  0  0  0  0  0  0  0
    1.4089    2.4206   -0.0005 C   0  0  0  0  0  0  0  0  0  0  0  0
    2.3457    4.0384   -0.0005 Br  0  0  0  0  0  0  0  0  0  0  0  0
   -0.1434   -1.9111   -0.0004 H   0  0  0  0  0  0  0  0  0  0  0  0
    3.2083    1.2093   -0.0010 H   0  0  0  0  0  0  0  0  0  0  0  0
   -0.5349    3.3823   -0.0001 H   0  0  0  0  0  0  0  0  0  0  0  0
  1  2  2  0  0  0  0
  1  3  1  0  0  0  0
  1  4  1  0  0  0  0
  2  5  1  0  0  0  0
  2  6  1  0  0  0  0
  3  7  2  0  0  0  0
  3  8  1  0  0  0  0
  4 11  1  0  0  0  0
  5  9  2  0  0  0  0
  5 12  1  0  0  0  0
  7  9  1  0  0  0  0
  7 13  1  0  0  0  0
  9 10  1  0  0  0  0
M  END