52918635.out.mol
  Mrv0541 03111415023D          

 47 49  0  0  0  0            999 V2000
    0.0000    0.0000    0.0000 C   0  0  2  0  0  0  0  0  0  0  0  0
    1.5145    0.0000    0.0000 C   0  0  1  0  0  0  0  0  0  0  0  0
    0.7580    1.3156    0.0000 C   0  0  1  0  0  0  0  0  0  0  0  0
   -0.7883   -0.4376    1.1693 C   0  0  0  0  0  0  0  0  0  0  0  0
    2.2875   -0.4122    1.1722 C   0  0  0  0  0  0  0  0  0  0  0  0
    0.7383    2.1005   -1.2750 C   0  0  0  0  0  0  0  0  0  0  0  0
    0.7744    2.1794    1.2190 C   0  0  0  0  0  0  0  0  0  0  0  0
   -2.0139   -0.9295    0.7833 O   0  0  0  0  0  0  0  0  0  0  0  0
   -0.5202   -0.4226    2.3720 O   0  0  0  0  0  0  0  0  0  0  0  0
    3.6242   -0.5097    1.2024 C   0  0  0  0  0  0  0  0  0  0  0  0
   -2.9009   -1.4260    1.8050 C   0  0  1  0  0  0  0  0  0  0  0  0
    4.7492   -0.1232   -0.2319 Br  0  0  0  0  0  0  0  0  0  0  0  0
    4.5192   -1.0580    2.7445 Br  0  0  0  0  0  0  0  0  0  0  0  0
   -4.2929   -0.9765    1.4580 C   0  0  0  0  0  0  0  0  0  0  0  0
   -2.8084   -2.8850    1.8270 C   0  0  0  0  0  0  0  0  0  0  0  0
   -4.7301   -0.9747    0.1314 C   0  0  0  0  0  0  0  0  0  0  0  0
   -5.1496   -0.5681    2.4855 C   0  0  0  0  0  0  0  0  0  0  0  0
   -2.7349   -4.0441    1.8445 N   0  0  0  0  0  0  0  0  0  0  0  0
   -6.0361   -0.5585   -0.1502 C   0  0  0  0  0  0  0  0  0  0  0  0
   -6.4508   -0.1629    2.1879 C   0  0  0  0  0  0  0  0  0  0  0  0
   -6.5948   -0.6101   -1.4224 O   0  0  0  0  0  0  0  0  0  0  0  0
   -6.9067   -0.1487    0.8725 C   0  0  0  0  0  0  0  0  0  0  0  0
   -5.7364   -0.3848   -2.4964 C   0  0  0  0  0  0  0  0  0  0  0  0
   -5.9896   -1.1466   -3.6472 C   0  0  0  0  0  0  0  0  0  0  0  0
   -4.7520    0.6103   -2.4845 C   0  0  0  0  0  0  0  0  0  0  0  0
   -5.2458   -0.8913   -4.7969 C   0  0  0  0  0  0  0  0  0  0  0  0
   -4.0165    0.8442   -3.6450 C   0  0  0  0  0  0  0  0  0  0  0  0
   -4.2615    0.0981   -4.7980 C   0  0  0  0  0  0  0  0  0  0  0  0
   -0.4954   -0.2981   -0.9520 H   0  0  0  0  0  0  0  0  0  0  0  0
    1.9818   -0.3088   -0.9637 H   0  0  0  0  0  0  0  0  0  0  0  0
    1.6912   -0.6497    2.0783 H   0  0  0  0  0  0  0  0  0  0  0  0
   -0.1776    2.7396   -1.3159 H   0  0  0  0  0  0  0  0  0  0  0  0
    1.6375    2.7627   -1.3247 H   0  0  0  0  0  0  0  0  0  0  0  0
    0.7432    1.4280   -2.1670 H   0  0  0  0  0  0  0  0  0  0  0  0
    0.7265    1.5662    2.1534 H   0  0  0  0  0  0  0  0  0  0  0  0
    1.7134    2.7858    1.2388 H   0  0  0  0  0  0  0  0  0  0  0  0
   -0.0983    2.8777    1.2053 H   0  0  0  0  0  0  0  0  0  0  0  0
   -2.5940   -1.0244    2.8186 H   0  0  0  0  0  0  0  0  0  0  0  0
   -4.0540   -1.2875   -0.6792 H   0  0  0  0  0  0  0  0  0  0  0  0
   -4.8015   -0.5681    3.5293 H   0  0  0  0  0  0  0  0  0  0  0  0
   -7.1237    0.1522    2.9999 H   0  0  0  0  0  0  0  0  0  0  0  0
   -7.9308    0.1652    0.6248 H   0  0  0  0  0  0  0  0  0  0  0  0
   -6.7710   -1.9194   -3.6308 H   0  0  0  0  0  0  0  0  0  0  0  0
   -4.5668    1.1918   -1.5701 H   0  0  0  0  0  0  0  0  0  0  0  0
   -5.4367   -1.4780   -5.7080 H   0  0  0  0  0  0  0  0  0  0  0  0
   -3.2429    1.6261   -3.6495 H   0  0  0  0  0  0  0  0  0  0  0  0
   -3.6785    0.2903   -5.7104 H   0  0  0  0  0  0  0  0  0  0  0  0
  1  2  1  0  0  0  0
  1  3  1  0  0  0  0
  1  4  1  0  0  0  0
  1 29  1  6  0  0  0
  2  3  1  0  0  0  0
  2  5  1  0  0  0  0
  2 30  1  6  0  0  0
  3  6  1  0  0  0  0
  3  7  1  0  0  0  0
  4  8  1  0  0  0  0
  4  9  2  0  0  0  0
  5 10  2  0  0  0  0
  5 31  1  0  0  0  0
  6 32  1  0  0  0  0
  6 33  1  0  0  0  0
  6 34  1  0  0  0  0
  7 35  1  0  0  0  0
  7 36  1  0  0  0  0
  7 37  1  0  0  0  0
  8 11  1  0  0  0  0
 10 12  1  0  0  0  0
 10 13  1  0  0  0  0
 11 14  1  0  0  0  0
 11 15  1  0  0  0  0
 11 38  1  1  0  0  0
 14 16  2  0  0  0  0
 14 17  1  0  0  0  0
 15 18  3  0  0  0  0
 16 19  1  0  0  0  0
 16 39  1  0  0  0  0
 17 20  2  0  0  0  0
 17 40  1  0  0  0  0
 19 21  1  0  0  0  0
 19 22  2  0  0  0  0
 20 22  1  0  0  0  0
 20 41  1  0  0  0  0
 21 23  1  0  0  0  0
 22 42  1  0  0  0  0
 23 24  2  0  0  0  0
 23 25  1  0  0  0  0
 24 26  1  0  0  0  0
 24 43  1  0  0  0  0
 25 27  2  0  0  0  0
 25 44  1  0  0  0  0
 26 28  2  0  0  0  0
 26 45  1  0  0  0  0
 27 28  1  0  0  0  0
 27 46  1  0  0  0  0
 28 47  1  0  0  0  0
M  END