parathion
  SciTegic01131010503D

 18 18  0  0  0  0            999 V2000
    3.2116   -1.7638    4.5260 C   0  0  0  0  0  0  0  0  0  1  0  0
    3.9006   -0.9207    3.4394 C   0  0  0  0  0  0  0  0  0  2  0  0
    3.9719   -1.6837    2.2125 O   0  0  0  0  0  0  0  0  0  3  0  0
    4.6576   -0.8440    1.0785 P   0  0  0  0  0  0  0  0  0  4  0  0
    4.7105   -1.7277   -0.3869 S   0  0  0  0  0  0  0  0  0  5  0  0
    6.1375   -0.4810    1.4651 O   0  0  0  0  0  0  0  0  0  6  0  0
    7.0638   -1.5958    1.3063 C   0  0  0  0  0  0  0  0  0  7  0  0
    6.8351   -2.7330    2.3251 C   0  0  0  0  0  0  0  0  0  8  0  0
    3.8765    0.5104    0.8673 O   0  0  0  0  0  0  0  0  0  9  0  0
    2.5130    0.3872    0.4710 C   0  0  0  0  0  0  0  0  0 10  0  0
    1.9006   -0.8502    0.2927 C   0  0  0  0  0  0  0  0  0 11  0  0
    0.5670   -0.9276   -0.0906 C   0  0  0  0  0  0  0  0  0 12  0  0
   -0.1647    0.2356   -0.2979 C   0  0  0  0  0  0  0  0  0 13  0  0
    0.4409    1.4740   -0.1204 C   0  0  0  0  0  0  0  0  0 14  0  0
    1.7750    1.5474    0.2631 C   0  0  0  0  0  0  0  0  0 15  0  0
   -1.5068    0.1603   -0.6836 N   0  0  0  0  0  0  0  0  0 16  0  0
   -1.8665    1.2751   -0.7839 O   0  0  0  0  0  0  0  0  0 17  0  0
   -1.7477   -0.9882   -0.7557 O   0  0  0  0  0  0  0  0  0 18  0  0
 16 18  2  0
 16 17  2  0
 13 16  1  0
 15 10  4  0
 14 15  4  0
 13 14  4  0
 12 13  4  0
 11 12  4  0
 10 11  4  0
  9 10  1  0
  4  9  1  0
  7  8  1  0
  6  7  1  0
  4  6  1  0
  4  5  2  0
  3  4  1  0
  2  3  1  0
  1  2  1  0
M  END