benz a anthracene
  SciTegic01131010503D

 18 21  0  0  0  0            999 V2000
    0.4371    1.0786   -0.4812 C   0  0  0  0  0  0  0  0  0  1  0  0
    0.1898   -0.2850   -0.5984 C   0  0  0  0  0  0  0  0  0  2  0  0
    1.2322   -1.1942   -0.4600 C   0  0  0  0  0  0  0  0  0  3  0  0
    2.5215   -0.7393   -0.2045 C   0  0  0  0  0  0  0  0  0  4  0  0
    2.7681    0.6237   -0.0874 C   0  0  0  0  0  0  0  0  0  5  0  0
    3.5646   -1.6476   -0.0660 C   0  0  0  0  0  0  0  0  0  6  0  0
    3.3190   -3.0110   -0.1829 C   0  0  0  0  0  0  0  0  0  7  0  0
    2.0303   -3.4660   -0.4383 C   0  0  0  0  0  0  0  0  0  8  0  0
    0.9870   -2.5577   -0.5768 C   0  0  0  0  0  0  0  0  0  9  0  0
   -1.0993   -0.7381   -0.8538 C   0  0  0  0  0  0  0  0  0 10  0  0
   -2.1404    0.1721   -0.9918 C   0  0  0  0  0  0  0  0  0 11  0  0
   -1.8928    1.5356   -0.8746 C   0  0  0  0  0  0  0  0  0 12  0  0
   -2.9343    2.4458   -1.0127 C   0  0  0  0  0  0  0  0  0 13  0  0
   -4.2236    1.9923   -1.2681 C   0  0  0  0  0  0  0  0  0 14  0  0
   -4.4710    0.6291   -1.3854 C   0  0  0  0  0  0  0  0  0 15  0  0
   -3.4294   -0.2813   -1.2472 C   0  0  0  0  0  0  0  0  0 16  0  0
    1.7258    1.5327   -0.2258 C   0  0  0  0  0  0  0  0  0 17  0  0
   -0.6040    1.9889   -0.6192 C   0  0  0  0  0  0  0  0  0 18  0  0
 18 12  4  0
  1 18  4  0
 17  5  4  0
  1 17  4  0
 16 15  4  0
 11 16  4  0
 14 15  4  0
 13 14  4  0
 12 13  4  0
 11 12  4  0
 10 11  4  0
  2 10  4  0
  9  8  4  0
  3  9  4  0
  7  8  4  0
  6  7  4  0
  4  6  4  0
  4  5  4  0
  3  4  4  0
  2  3  4  0
  1  2  4  0
M  END