ethane, 1,1'-oxybis-
  SciTegic01131010503D

  5  4  0  0  0  0            999 V2000
   -0.1009   -0.1107   -0.2628 O   0  0  0  0  0  0  0  0  0  1  0  0
    1.3102   -0.3339   -0.0700 C   0  0  0  0  0  0  0  0  0  2  0  0
    1.6277   -0.5190    1.4340 C   0  0  0  0  0  0  0  0  0  3  0  0
   -0.5147    1.1473    0.3063 C   0  0  0  0  0  0  0  0  0  4  0  0
    0.1258    2.3268   -0.4656 C   0  0  0  0  0  0  0  0  0  5  0  0
  4  5  1  0
  1  4  1  0
  2  3  1  0
  1  2  1  0
M  END