acetamide
  SciTegic01131010503D

  4  3  0  0  0  0            999 V2000
   -0.2896    0.0026    0.0220 O   0  0  0  0  0  0  0  0  0  1  0  0
    0.9466    0.0012    0.0225 C   0  0  0  0  0  0  0  0  0  2  0  0
    1.6444   -0.0010    1.2322 N   0  0  0  0  0  0  0  0  0  3  0  0
    1.6980    0.0017   -1.2775 C   0  0  0  0  0  0  0  0  0  4  0  0
  2  4  1  0
  2  3  1  0
  1  2  2  0
M  END