dieldrin
  SciTegic01131010503D

 19 23  0  0  0  0            999 V2000
    0.3637   -1.9916   -0.1058 Cl  0  0  0  0  0  0  0  0  0  1  0  0
   -0.0348   -0.3850    0.3834 C   0  0  0  0  0  0  0  0  0  2  0  0
   -0.1443    0.0339    1.6251 C   0  0  0  0  0  0  0  0  0  3  0  0
    0.0872   -0.9312    3.0373 Cl  0  0  0  0  0  0  0  0  0  4  0  0
   -0.5286    1.4763    1.6101 C   0  0  1  0  0  0  0  0  0  5  0  0
   -1.1352    2.0538    3.1634 Cl  0  0  0  0  0  0  0  0  0  6  0  0
    0.5754    2.4206    0.9832 C   0  0  0  0  0  0  0  0  0  7  0  0
    2.0518    2.4860    1.5134 C   0  0  0  0  0  0  0  0  0  8  0  0
    2.6917    1.2716    0.7607 C   0  0  0  0  0  0  0  0  0  9  0  0
    2.2430    1.7528   -0.6598 C   0  0  0  0  0  0  0  0  0 10  0  0
    2.8719    3.1671   -0.6819 C   0  0  0  0  0  0  0  0  0 11  0  0
    1.8903    4.1307   -0.2744 O   0  0  0  0  0  0  0  0  0 12  0  0
    2.7435    3.6598    0.7786 C   0  0  0  0  0  0  0  0  0 13  0  0
    0.7003    1.9416   -0.4368 C   0  0  0  0  0  0  0  0  0 14  0  0
   -0.3401    0.7533   -0.5329 C   0  0  1  0  0  0  0  0  0 15  0  0
   -0.6640    0.2470   -2.1921 Cl  0  0  0  0  0  0  0  0  0 16  0  0
   -1.4712    1.4180    0.3451 C   0  0  0  0  0  0  0  0  0 17  0  0
   -2.8317    0.3208    0.5956 Cl  0  0  0  0  0  0  0  0  0 18  0  0
   -2.0456    2.9843   -0.2339 Cl  0  0  0  0  0  0  0  0  0 19  0  0
 17 19  1  0
 17 18  1  0
 17  5  1  0
 15 17  1  0
 15 16  1  0
 15  2  1  0
 14 15  1  0
 14  7  1  0
 10 14  1  0
 13 11  1  0
 13  8  1  0
 12 13  1  0
 11 12  1  0
 10 11  1  0
  9 10  1  0
  8  9  1  0
  7  8  1  0
  5  7  1  0
  5  6  1  0
  3  5  1  0
  3  4  1  0
  2  3  2  0
  1  2  1  0
M  END