1-naphthalenol, methylcarbamate
  SciTegic01131010503D

 15 16  0  0  0  0            999 V2000
    2.5600   -0.0885   -2.3186 O   0  0  0  0  0  0  0  0  0  1  0  0
    2.1828   -0.1454   -1.1430 C   0  0  0  0  0  0  0  0  0  2  0  0
    1.0934    0.8161   -0.8247 O   0  0  0  0  0  0  0  0  0  3  0  0
    0.3077    1.0243    0.3769 C   0  0  0  0  0  0  0  0  0  4  0  0
   -0.5924    2.0849    0.3360 C   0  0  0  0  0  0  0  0  0  5  0  0
   -1.4051    2.3779    1.4268 C   0  0  0  0  0  0  0  0  0  6  0  0
   -2.2946    3.4444    1.3673 C   0  0  0  0  0  0  0  0  0  7  0  0
   -2.3736    4.2210    0.2171 C   0  0  0  0  0  0  0  0  0  8  0  0
   -1.5629    3.9294   -0.8738 C   0  0  0  0  0  0  0  0  0  9  0  0
   -1.3297    1.6060    2.5783 C   0  0  0  0  0  0  0  0  0 10  0  0
   -0.4385    0.5433    2.6302 C   0  0  0  0  0  0  0  0  0 11  0  0
   -0.6739    2.8626   -0.8137 C   0  0  0  0  0  0  0  0  0 12  0  0
    0.3693    0.2612    1.5349 C   0  0  0  0  0  0  0  0  0 13  0  0
    2.9043   -1.1438   -0.3466 N   0  0  0  0  0  0  0  0  0 14  0  0
    2.8215   -1.4910    1.0390 C   0  0  0  0  0  0  0  0  0 15  0  0
 14 15  1  0
  2 14  1  0
 13 11  4  0
  4 13  4  0
 12  9  4  0
  5 12  4  0
 10 11  4  0
  6 10  4  0
  8  9  4  0
  7  8  4  0
  6  7  4  0
  5  6  4  0
  4  5  4  0
  3  4  1  0
  2  3  1  0
  1  2  2  0
M  END