acetic acid
  SciTegic01131010503D

  4  3  0  0  0  0            999 V2000
   -0.2890   -0.0003    0.0222 O   0  0  0  0  0  0  0  0  0  1  0  0
    0.9472    0.0008    0.0229 C   0  0  0  0  0  0  0  0  0  2  0  0
    1.6423    0.0022    1.2284 O   0  0  0  0  0  0  0  0  0  3  0  0
    1.6987    0.0005   -1.2770 C   0  0  0  0  0  0  0  0  0  4  0  0
  2  4  1  0
  2  3  1  0
  1  2  2  0
M  END