2-propanol
  SciTegic01131010503D

  4  3  0  0  0  0            999 V2000
   -0.4167   -0.1012   -0.0585 O   0  0  0  0  0  0  0  0  0  1  0  0
    1.0132   -0.1107   -0.0640 C   0  0  0  0  0  0  0  0  0  2  0  0
    1.5329   -0.1149    1.3856 C   0  0  0  0  0  0  0  0  0  3  0  0
    1.5328    1.1426   -0.7927 C   0  0  0  0  0  0  0  0  0  4  0  0
  2  4  1  0
  2  3  1  0
  1  2  1  0
M  END