benzoic acid, 2-hydroxy-
  SciTegic01131010503D

 10 10  0  0  0  0            999 V2000
    1.2725   -1.7088    0.2604 O   0  0  0  0  0  0  0  0  0  1  0  0
    1.3470   -0.5462    0.6731 C   0  0  0  0  0  0  0  0  0  2  0  0
    2.3585   -0.1942    1.5609 O   0  0  0  0  0  0  0  0  0  3  0  0
    0.3655    0.4480    0.2200 C   0  0  0  0  0  0  0  0  0  4  0  0
    0.4222    1.7657    0.6666 C   0  0  0  0  0  0  0  0  0  5  0  0
    1.4130    2.1702    1.5544 O   0  0  0  0  0  0  0  0  0  6  0  0
   -0.5180    2.6893    0.2237 C   0  0  0  0  0  0  0  0  0  7  0  0
   -1.5147    2.3004   -0.6639 C   0  0  0  0  0  0  0  0  0  8  0  0
   -1.5717    0.9853   -1.1099 C   0  0  0  0  0  0  0  0  0  9  0  0
   -0.6323    0.0611   -0.6678 C   0  0  0  0  0  0  0  0  0 10  0  0
 10  9  4  0
  4 10  4  0
  8  9  4  0
  7  8  4  0
  5  7  4  0
  5  6  1  0
  4  5  4  0
  2  4  1  0
  2  3  1  0
  1  2  2  0
M  END