1-pentanol
  SciTegic01131010503D

  6  5  0  0  0  0            999 V2000
    0.6424   -0.6039   -1.1336 O   0  0  0  0  0  0  0  0  0  1  0  0
    1.7688   -0.0331   -0.4669 C   0  0  0  0  0  0  0  0  0  2  0  0
    1.7605   -0.3674    1.0551 C   0  0  0  0  0  0  0  0  0  3  0  0
    0.6576    0.3384    1.9495 C   0  0  0  0  0  0  0  0  0  4  0  0
   -0.8398   -0.0524    1.6878 C   0  0  0  0  0  0  0  0  0  5  0  0
   -1.4844    0.7247    0.5135 C   0  0  0  0  0  0  0  0  0  6  0  0
  5  6  1  0
  4  5  1  0
  3  4  1  0
  2  3  1  0
  1  2  1  0
M  END