methoxychlor
  SciTegic01131010503D

 21 22  0  0  0  0            999 V2000
    2.0395    7.4724    0.7703 C   0  0  0  0  0  0  0  0  0  1  0  0
    1.5906    7.0022   -0.5099 O   0  0  0  0  0  0  0  0  0  2  0  0
    0.9926    5.7346   -0.4082 C   0  0  0  0  0  0  0  0  0  3  0  0
    0.8855    5.0907    0.8204 C   0  0  0  0  0  0  0  0  0  4  0  0
    0.2929    3.8362    0.9012 C   0  0  0  0  0  0  0  0  0  5  0  0
   -0.1935    3.2127   -0.2437 C   0  0  0  0  0  0  0  0  0  6  0  0
   -0.0869    3.8603   -1.4709 C   0  0  0  0  0  0  0  0  0  7  0  0
    0.5029    5.1163   -1.5528 C   0  0  0  0  0  0  0  0  0  8  0  0
   -0.8453    1.8329   -0.1838 C   0  0  0  0  0  0  0  0  0  9  0  0
    0.2704    0.7634   -0.0792 C   0  0  0  0  0  0  0  0  0 10  0  0
    1.5006    0.9986   -0.6866 C   0  0  0  0  0  0  0  0  0 11  0  0
    2.5248    0.0623   -0.6048 C   0  0  0  0  0  0  0  0  0 12  0  0
    2.3297   -1.1267    0.0895 C   0  0  0  0  0  0  0  0  0 13  0  0
    3.3524   -2.0858    0.1859 O   0  0  0  0  0  0  0  0  0 14  0  0
    4.5375   -1.6569   -0.5017 C   0  0  0  0  0  0  0  0  0 15  0  0
    1.1042   -1.3698    0.6974 C   0  0  0  0  0  0  0  0  0 16  0  0
    0.0839   -0.4300    0.6120 C   0  0  0  0  0  0  0  0  0 17  0  0
   -1.9528    1.6984    0.9421 C   0  0  0  0  0  0  0  0  0 18  0  0
   -2.8220    0.1534    0.8228 Cl  0  0  0  0  0  0  0  0  0 19  0  0
   -3.1393    2.9842    0.6939 Cl  0  0  0  0  0  0  0  0  0 20  0  0
   -1.2766    1.8463    2.5765 Cl  0  0  0  0  0  0  0  0  0 21  0  0
 18 21  1  0
 18 20  1  0
 18 19  1  0
  9 18  1  0
 17 10  4  0
 16 17  4  0
 13 16  4  0
 14 15  1  0
 13 14  1  0
 12 13  4  0
 11 12  4  0
 10 11  4  0
  9 10  1  0
  6  9  1  0
  8  3  4  0
  7  8  4  0
  6  7  4  0
  5  6  4  0
  4  5  4  0
  3  4  4  0
  2  3  1  0
  1  2  1  0
M  END