p,p' - DDE
  SciTegic01131010503D

 18 19  0  0  0  0            999 V2000
    1.8168    4.1111    0.4120 Cl  0  0  0  0  0  0  0  0  0  1  0  0
    0.2636    3.3374    0.5601 C   0  0  0  0  0  0  0  0  0  2  0  0
   -1.0018    4.4843    0.9017 Cl  0  0  0  0  0  0  0  0  0  3  0  0
    0.0585    1.9769    0.4199 C   0  0  0  0  0  0  0  0  0  4  0  0
   -1.4190    1.3635    0.5968 C   0  0  0  0  0  0  0  0  0  5  0  0
   -1.7201    0.0416    0.2695 C   0  0  0  0  0  0  0  0  0  6  0  0
   -2.9946   -0.4935    0.4168 C   0  0  0  0  0  0  0  0  0  7  0  0
   -4.0228    0.2970    0.9062 C   0  0  0  0  0  0  0  0  0  8  0  0
   -5.6119   -0.3537    1.0962 Cl  0  0  0  0  0  0  0  0  0  9  0  0
   -3.7595    1.6166    1.2409 C   0  0  0  0  0  0  0  0  0 10  0  0
   -2.4771    2.1292    1.0833 C   0  0  0  0  0  0  0  0  0 11  0  0
    1.2966    1.0046    0.0817 C   0  0  0  0  0  0  0  0  0 12  0  0
    2.5594    1.5051   -0.2304 C   0  0  0  0  0  0  0  0  0 13  0  0
    3.6403    0.6797   -0.5176 C   0  0  0  0  0  0  0  0  0 14  0  0
    3.4832   -0.6978   -0.4974 C   0  0  0  0  0  0  0  0  0 15  0  0
    4.8179   -1.7365   -0.8507 Cl  0  0  0  0  0  0  0  0  0 16  0  0
    2.2415   -1.2312   -0.1888 C   0  0  0  0  0  0  0  0  0 17  0  0
    1.1757   -0.3848    0.0942 C   0  0  0  0  0  0  0  0  0 18  0  0
 18 12  4  0
 17 18  4  0
 15 17  4  0
 15 16  1  0
 14 15  4  0
 13 14  4  0
 12 13  4  0
  4 12  1  0
 11  5  4  0
 10 11  4  0
  8 10  4  0
  8  9  1  0
  7  8  4  0
  6  7  4  0
  5  6  4  0
  4  5  1  0
  2  4  2  0
  2  3  1  0
  1  2  1  0
M  END