ethene, chloro-
  SciTegic01131010503D

  3  2  0  0  0  0            999 V2000
    0.0259   -0.2163   -0.0011 C   0  0  0  0  0  0  0  0  0  1  0  0
    1.3566   -0.1739    0.0008 C   0  0  0  0  0  0  0  0  0  2  0  0
   -0.8856    1.2523    0.0005 Cl  0  0  0  0  0  0  0  0  0  3  0  0
  1  3  1  0
  1  2  2  0
M  END