ethanamine
  SciTegic01131010503D

  3  2  0  0  0  0            999 V2000
   -0.3777    0.0008   -0.1611 N   0  0  0  0  0  0  0  0  0  1  0  0
    1.0923   -0.0014   -0.1708 C   0  0  0  0  0  0  0  0  0  2  0  0
    1.6159    0.0005    1.2774 C   0  0  0  0  0  0  0  0  0  3  0  0
  2  3  1  0
  1  2  1  0
M  END