acetaldehyde
  SciTegic01131010503D

  3  2  0  0  0  0            999 V2000
   -0.2519   -0.0011   -0.1150 O   0  0  0  0  0  0  0  0  0  1  0  0
    0.9839   -0.0008   -0.1483 C   0  0  0  0  0  0  0  0  0  2  0  0
    1.7693    0.0002    1.1314 C   0  0  0  0  0  0  0  0  0  3  0  0
  2  3  1  0
  1  2  2  0
M  END