methane, dichloro-
  SciTegic01131010503D

  3  2  0  0  0  0            999 V2000
   -0.5947   -0.0007   -0.2430 Cl  0  0  0  0  0  0  0  0  0  1  0  0
    1.1723    0.0010   -0.2395 C   0  0  0  0  0  0  0  0  0  2  0  0
    1.7588    0.0005    1.4273 Cl  0  0  0  0  0  0  0  0  0  3  0  0
  2  3  1  0
  1  2  1  0
M  END