methane, bromodichloro-
  SciTegic01131010503D

  4  3  0  0  0  0            999 V2000
   -0.8288   -0.1759   -0.1030 Br  0  0  0  0  0  0  0  0  0  1  0  0
    1.1110   -0.1539   -0.0884 C   0  0  0  0  0  0  0  0  0  2  0  0
    1.6883   -0.1500    1.5816 Cl  0  0  0  0  0  0  0  0  0  3  0  0
    1.6907    1.2956   -0.9162 Cl  0  0  0  0  0  0  0  0  0  4  0  0
  2  4  1  0
  2  3  1  0
  1  2  1  0
M  END