2-propanol, 2-methyl-
  SciTegic01131010503D

  5  4  0  0  0  0            999 V2000
   -0.4546    0.0008    0.0003 O   0  0  0  0  0  0  0  0  0  1  0  0
    0.9754    0.0004    0.0009 C   0  0  0  0  0  0  0  0  0  2  0  0
    1.4882    0.0013    1.4530 C   0  0  0  0  0  0  0  0  0  3  0  0
    1.4893    1.2572   -0.7258 C   0  0  0  0  0  0  0  0  0  4  0  0
    1.4887   -1.2576   -0.7240 C   0  0  0  0  0  0  0  0  0  5  0  0
  2  5  1  0
  2  4  1  0
  2  3  1  0
  1  2  1  0
M  END