ethane, pentachloro-
  SciTegic01131010503D

  7  6  0  0  0  0            999 V2000
   -0.1978   -0.1022    0.0008 C   0  0  0  0  0  0  0  0  0  1  0  0
    1.3389   -0.1427    0.0581 C   0  0  0  0  0  0  0  0  0  2  0  0
    1.8806    0.3874    1.6538 Cl  0  0  0  0  0  0  0  0  0  3  0  0
    2.0007    0.9328   -1.1771 Cl  0  0  0  0  0  0  0  0  0  4  0  0
   -0.7525    1.5490    0.2953 Cl  0  0  0  0  0  0  0  0  0  5  0  0
   -0.8614   -1.1765    1.2364 Cl  0  0  0  0  0  0  0  0  0  6  0  0
   -0.7412   -0.6309   -1.5950 Cl  0  0  0  0  0  0  0  0  0  7  0  0
  1  7  1  0
  1  6  1  0
  1  5  1  0
  2  4  1  0
  2  3  1  0
  1  2  1  0
M  END