1-propanol, 2-methyl-
  SciTegic01131010503D

  5  4  0  0  0  0            999 V2000
   -0.1950    0.4225   -0.5109 O   0  0  0  0  0  0  0  0  0  1  0  0
    0.9026   -0.4621   -0.2726 C   0  0  0  0  0  0  0  0  0  2  0  0
    1.5334   -0.1392    1.0940 C   0  0  0  0  0  0  0  0  0  3  0  0
    0.4785   -0.3190    2.2012 C   0  0  0  0  0  0  0  0  0  4  0  0
    2.0365    1.3162    1.0956 C   0  0  0  0  0  0  0  0  0  5  0  0
  3  5  1  0
  3  4  1  0
  2  3  1  0
  1  2  1  0
M  END