propane, 1,2-dichloro-
  SciTegic01131010503D

  5  4  0  0  0  0            999 V2000
   -0.3884    0.4753   -0.6017 Cl  0  0  0  0  0  0  0  0  0  1  0  0
    1.0437   -0.5088   -0.2827 C   0  0  0  0  0  0  0  0  0  2  0  0
    1.6387   -0.1194    1.0827 C   0  0  0  0  0  0  0  0  0  3  0  0
    0.4372   -0.3960    2.3481 Cl  0  0  0  0  0  0  0  0  0  4  0  0
    2.0324    1.3693    1.0651 C   0  0  0  0  0  0  0  0  0  5  0  0
  3  5  1  0
  3  4  1  0
  2  3  1  0
  1  2  1  0
M  END