2-propenoic acid
  SciTegic01131010503D

  5  4  0  0  0  0            999 V2000
    1.8997   -0.4725    1.0295 O   0  0  0  0  0  0  0  0  0  1  0  0
    1.1675   -0.0096    0.1477 C   0  0  0  0  0  0  0  0  0  2  0  0
    1.6650    0.1903   -1.1361 O   0  0  0  0  0  0  0  0  0  3  0  0
   -0.2221    0.3280    0.4535 C   0  0  0  0  0  0  0  0  0  4  0  0
   -1.0096    0.8264   -0.4971 C   0  0  0  0  0  0  0  0  0  5  0  0
  4  5  2  0
  2  4  1  0
  2  3  1  0
  1  2  2  0
M  END