acetic acid, methyl ester
  SciTegic01131010503D

  5  4  0  0  0  0            999 V2000
   -0.3230   -0.5891   -0.2119 O   0  0  0  0  0  0  0  0  0  1  0  0
    0.7619   -0.0268   -0.0251 C   0  0  0  0  0  0  0  0  0  2  0  0
    1.1417    0.3243    1.2851 O   0  0  0  0  0  0  0  0  0  3  0  0
    2.4265    0.9661    1.3111 C   0  0  0  0  0  0  0  0  0  4  0  0
    1.6553    0.2709   -1.2058 C   0  0  0  0  0  0  0  0  0  5  0  0
  2  5  1  0
  3  4  1  0
  2  3  1  0
  1  2  2  0
M  END