ethane, 1,1,2,2-tetrachloro-
  SciTegic01131010503D

  6  5  0  0  0  0            999 V2000
   -0.2674   -0.0842   -0.1664 C   0  0  0  0  0  0  0  0  0  1  0  0
    1.2670   -0.1664   -0.0842 C   0  0  0  0  0  0  0  0  0  2  0  0
    1.7889    0.2352    1.5550 Cl  0  0  0  0  0  0  0  0  0  3  0  0
    1.9791    0.9779   -1.2265 Cl  0  0  0  0  0  0  0  0  0  4  0  0
   -0.7893    1.5549    0.2356 Cl  0  0  0  0  0  0  0  0  0  5  0  0
   -0.9795   -1.2269    0.9775 Cl  0  0  0  0  0  0  0  0  0  6  0  0
  1  6  1  0
  1  5  1  0
  2  4  1  0
  2  3  1  0
  1  2  1  0
M  END