2-propenoic acid, 2-methyl-, methyl ester
  SciTegic01131010503D

  7  6  0  0  0  0            999 V2000
    1.7486    0.8602    0.8791 O   0  0  0  0  0  0  0  0  0  1  0  0
    1.1621    0.2327   -0.0098 C   0  0  0  0  0  0  0  0  0  2  0  0
    2.0078   -0.2005   -1.1280 O   0  0  0  0  0  0  0  0  0  3  0  0
    1.4612   -0.9389   -2.2321 C   0  0  0  0  0  0  0  0  0  4  0  0
   -0.3464    0.0239    0.2241 C   0  0  0  0  0  0  0  0  0  5  0  0
   -0.8506    0.5354    1.3449 C   0  0  0  0  0  0  0  0  0  6  0  0
   -1.3205   -0.7043   -0.6894 C   0  0  0  0  0  0  0  0  0  7  0  0
  5  7  1  0
  5  6  2  0
  2  5  1  0
  3  4  1  0
  2  3  1  0
  1  2  2  0
M  END