1,2-benzenedicarboxylic acid, diethyl ester
  SciTegic01131010503D

 16 16  0  0  0  0            999 V2000
    0.9396   -1.4967   -0.2560 O   0  0  0  0  0  0  0  0  0  1  0  0
    0.4971   -0.4361    0.2016 C   0  0  0  0  0  0  0  0  0  2  0  0
    0.4966   -0.2408    1.5788 O   0  0  0  0  0  0  0  0  0  3  0  0
    1.0874   -1.3459    2.2922 C   0  0  0  0  0  0  0  0  0  4  0  0
    2.6298   -1.3370    2.1400 C   0  0  0  0  0  0  0  0  0  5  0  0
   -0.0347    0.5627   -0.7787 C   0  0  0  0  0  0  0  0  0  6  0  0
   -0.5909    1.8231   -0.4885 C   0  0  0  0  0  0  0  0  0  7  0  0
   -1.0346    2.6184   -1.5417 C   0  0  0  0  0  0  0  0  0  8  0  0
   -0.9426    2.2020   -2.8623 C   0  0  0  0  0  0  0  0  0  9  0  0
   -0.3953    0.9619   -3.1479 C   0  0  0  0  0  0  0  0  0 10  0  0
   -0.7724    2.4391    0.8640 C   0  0  0  0  0  0  0  0  0 11  0  0
   -1.2772    3.5677    0.9077 O   0  0  0  0  0  0  0  0  0 12  0  0
   -0.3871    1.8233    2.0501 O   0  0  0  0  0  0  0  0  0 13  0  0
   -0.6965    2.6209    3.2108 C   0  0  0  0  0  0  0  0  0 14  0  0
   -2.2167    2.5875    3.5115 C   0  0  0  0  0  0  0  0  0 15  0  0
    0.0512    0.1583   -2.1084 C   0  0  0  0  0  0  0  0  0 16  0  0
 16 10  4  0
  6 16  4  0
 14 15  1  0
 13 14  1  0
 11 13  1  0
 11 12  2  0
  7 11  1  0
  9 10  4  0
  8  9  4  0
  7  8  4  0
  6  7  4  0
  2  6  1  0
  4  5  1  0
  3  4  1  0
  2  3  1  0
  1  2  2  0
M  END