1,2-benzenedicarboxylic acid, butyl phenylmethyl ester
  SciTegic01131010503D

 23 24  0  0  0  0            999 V2000
    2.2914   -1.0596   -0.6629 O   0  0  0  0  0  0  0  0  0  1  0  0
    1.4304   -0.3478   -0.1325 C   0  0  0  0  0  0  0  0  0  2  0  0
    1.1264   -0.5581    1.2166 O   0  0  0  0  0  0  0  0  0  3  0  0
    1.9211   -1.6362    1.7591 C   0  0  0  0  0  0  0  0  0  4  0  0
    1.4109   -3.0079    1.3438 C   0  0  0  0  0  0  0  0  0  5  0  0
    0.1447   -3.1662    0.7872 C   0  0  0  0  0  0  0  0  0  6  0  0
   -0.3028   -4.4287    0.4156 C   0  0  0  0  0  0  0  0  0  7  0  0
    0.5144   -5.5380    0.6004 C   0  0  0  0  0  0  0  0  0  8  0  0
    1.7777   -5.3834    1.1595 C   0  0  0  0  0  0  0  0  0  9  0  0
    2.2237   -4.1204    1.5319 C   0  0  0  0  0  0  0  0  0 10  0  0
    0.7818    0.6944   -0.9802 C   0  0  0  0  0  0  0  0  0 11  0  0
   -0.1917    1.6196   -0.5675 C   0  0  0  0  0  0  0  0  0 12  0  0
   -0.6881    2.5345   -1.4921 C   0  0  0  0  0  0  0  0  0 13  0  0
   -0.2468    2.5508   -2.8076 C   0  0  0  0  0  0  0  0  0 14  0  0
    0.7126    1.6378   -3.2156 C   0  0  0  0  0  0  0  0  0 15  0  0
   -0.7700    1.7390    0.7953 C   0  0  0  0  0  0  0  0  0 16  0  0
   -0.4767    0.9865    1.7245 O   0  0  0  0  0  0  0  0  0 17  0  0
   -1.6819    2.7663    1.0139 O   0  0  0  0  0  0  0  0  0 18  0  0
   -2.1562    2.7558    2.3582 C   0  0  0  0  0  0  0  0  0 19  0  0
   -3.0555    3.9877    2.5582 C   0  0  0  0  0  0  0  0  0 20  0  0
   -4.2015    3.9559    1.5301 C   0  0  0  0  0  0  0  0  0 21  0  0
   -5.0791    5.2092    1.7001 C   0  0  0  0  0  0  0  0  0 22  0  0
    1.2172    0.7226   -2.3023 C   0  0  0  0  0  0  0  0  0 23  0  0
 23 15  4  0
 11 23  4  0
 21 22  1  0
 20 21  1  0
 19 20  1  0
 18 19  1  0
 16 18  1  0
 16 17  2  0
 12 16  1  0
 14 15  4  0
 13 14  4  0
 12 13  4  0
 11 12  4  0
  2 11  1  0
 10  9  4  0
  5 10  4  0
  8  9  4  0
  7  8  4  0
  6  7  4  0
  5  6  4  0
  4  5  1  0
  3  4  1  0
  2  3  1  0
  1  2  2  0
M  END