9h-fluorene
  SciTegic01131010503D

 13 15  0  0  0  0            999 V2000
   -1.2400    1.2625    1.5953 C   0  0  0  0  0  0  0  0  0  1  0  0
   -1.2704    2.0450    0.4595 C   0  0  0  0  0  0  0  0  0  2  0  0
   -2.5016    2.7284    0.4067 C   0  0  0  0  0  0  0  0  0  3  0  0
   -3.2551    2.3809    1.5089 C   0  0  0  0  0  0  0  0  0  4  0  0
   -4.5198    2.9161    1.7016 C   0  0  0  0  0  0  0  0  0  5  0  0
   -4.9975    3.8124    0.7459 C   0  0  0  0  0  0  0  0  0  6  0  0
   -4.2272    4.1589   -0.3678 C   0  0  0  0  0  0  0  0  0  7  0  0
   -2.9570    3.6166   -0.5545 C   0  0  0  0  0  0  0  0  0  8  0  0
   -0.2148    2.0947   -0.4369 C   0  0  0  0  0  0  0  0  0  9  0  0
    0.9017    1.3123   -0.1479 C   0  0  0  0  0  0  0  0  0 10  0  0
    0.9411    0.5165    1.0005 C   0  0  0  0  0  0  0  0  0 11  0  0
   -0.1327    0.4813    1.8897 C   0  0  0  0  0  0  0  0  0 12  0  0
   -2.5290    1.3820    2.4229 C   0  0  0  0  0  0  0  0  0 13  0  0
 13  4  1  0
  1 13  1  0
 12 11  4  0
  1 12  4  0
 10 11  4  0
  9 10  4  0
  2  9  4  0
  8  7  4  0
  3  8  4  0
  6  7  4  0
  5  6  4  0
  4  5  4  0
  3  4  4  0
  2  3  1  0
  1  2  4  0
M  END