phenol, 2-nitro-
  SciTegic01131010503D

 10 10  0  0  0  0            999 V2000
    1.6155   -0.3447    0.6870 N   0  0  0  0  0  0  0  0  0  1  0  0
    2.0621    0.1128    1.6700 O   0  0  0  0  0  0  0  0  0  2  0  0
    1.6398   -1.2130   -0.1053 O   0  0  0  0  0  0  0  0  0  3  0  0
    0.5838    0.5268    0.2424 C   0  0  0  0  0  0  0  0  0  4  0  0
    0.2406    1.6957    0.9269 C   0  0  0  0  0  0  0  0  0  5  0  0
    0.8953    2.0804    2.0971 O   0  0  0  0  0  0  0  0  0  6  0  0
   -0.7788    2.5076    0.4409 C   0  0  0  0  0  0  0  0  0  7  0  0
   -1.4595    2.1654   -0.7210 C   0  0  0  0  0  0  0  0  0  8  0  0
   -1.1203    1.0042   -1.4031 C   0  0  0  0  0  0  0  0  0  9  0  0
   -0.1023    0.1906   -0.9205 C   0  0  0  0  0  0  0  0  0 10  0  0
 10  9  4  0
  4 10  4  0
  8  9  4  0
  7  8  4  0
  5  7  4  0
  5  6  1  0
  4  5  4  0
  1  4  1  0
  1  3  2  0
  1  2  2  0
M  END