1,2-benzenedicarboxylic acid
  SciTegic01131010503D

 12 12  0  0  0  0            999 V2000
    1.1569   -1.4444    0.4677 O   0  0  0  0  0  0  0  0  0  1  0  0
    0.8247   -0.3439    0.9215 C   0  0  0  0  0  0  0  0  0  2  0  0
    1.1767   -0.0471    2.2171 O   0  0  0  0  0  0  0  0  0  3  0  0
    0.0635    0.5834    0.0250 C   0  0  0  0  0  0  0  0  0  4  0  0
   -0.4043    1.8714    0.3464 C   0  0  0  0  0  0  0  0  0  5  0  0
   -1.0985    2.5938   -0.6206 C   0  0  0  0  0  0  0  0  0  6  0  0
   -1.3386    2.0772   -1.8861 C   0  0  0  0  0  0  0  0  0  7  0  0
   -0.8782    0.8093   -2.2025 C   0  0  0  0  0  0  0  0  0  8  0  0
   -0.2390    2.5854    1.6526 C   0  0  0  0  0  0  0  0  0  9  0  0
   -0.7184    3.7198    1.7565 O   0  0  0  0  0  0  0  0  0 10  0  0
    0.4124    2.0576    2.7424 O   0  0  0  0  0  0  0  0  0 11  0  0
   -0.1848    0.0779   -1.2485 C   0  0  0  0  0  0  0  0  0 12  0  0
 12  8  4  0
  4 12  4  0
  9 11  1  0
  9 10  2  0
  5  9  1  0
  7  8  4  0
  6  7  4  0
  5  6  4  0
  4  5  4  0
  2  4  1  0
  2  3  1  0
  1  2  2  0
M  END