phenol, 2-methoxy-
  SciTegic01131010503D

  9  9  0  0  0  0            999 V2000
    1.2166   -0.2622    1.2403 O   0  0  0  0  0  0  0  0  0  1  0  0
    0.3508    0.5670    0.5074 C   0  0  0  0  0  0  0  0  0  2  0  0
    0.1570    1.8811    0.9178 C   0  0  0  0  0  0  0  0  0  3  0  0
    0.8181    2.3598    2.0434 O   0  0  0  0  0  0  0  0  0  4  0  0
   -0.6958    2.7170    0.2057 C   0  0  0  0  0  0  0  0  0  5  0  0
   -1.3575    2.2398   -0.9199 C   0  0  0  0  0  0  0  0  0  6  0  0
   -1.1659    0.9264   -1.3328 C   0  0  0  0  0  0  0  0  0  7  0  0
   -0.3128    0.0912   -0.6200 C   0  0  0  0  0  0  0  0  0  8  0  0
    1.2900   -1.5768    0.6689 C   0  0  0  0  0  0  0  0  0  9  0  0
  1  9  1  0
  8  7  4  0
  2  8  4  0
  6  7  4  0
  5  6  4  0
  3  5  4  0
  3  4  1  0
  2  3  4  0
  1  2  1  0
M  END