naphthalene
  SciTegic01131010503D

 10 11  0  0  0  0            999 V2000
    0.9373    0.5656   -0.0858 C   0  0  0  0  0  0  0  0  0  1  0  0
    1.1526    1.6148    0.8017 C   0  0  0  0  0  0  0  0  0  2  0  0
    2.4465    1.9419    1.1907 C   0  0  0  0  0  0  0  0  0  3  0  0
    3.5251    1.2200    0.6923 C   0  0  0  0  0  0  0  0  0  4  0  0
    3.3099    0.1713   -0.1948 C   0  0  0  0  0  0  0  0  0  5  0  0
    0.0740    2.3365    1.2999 C   0  0  0  0  0  0  0  0  0  6  0  0
   -1.2199    2.0091    0.9107 C   0  0  0  0  0  0  0  0  0  7  0  0
   -1.4351    0.9603    0.0235 C   0  0  0  0  0  0  0  0  0  8  0  0
    2.0159   -0.1561   -0.5840 C   0  0  0  0  0  0  0  0  0  9  0  0
   -0.3565    0.2384   -0.4749 C   0  0  0  0  0  0  0  0  0 10  0  0
 10  8  4  0
  1 10  4  0
  9  5  4  0
  1  9  4  0
  7  8  4  0
  6  7  4  0
  2  6  4  0
  4  5  4  0
  3  4  4  0
  2  3  4  0
  1  2  4  0
M  END