quinoline
  SciTegic01131010503D

 10 11  0  0  0  0            999 V2000
   -1.5045    0.9762   -0.8053 N   0  0  0  0  0  0  0  0  0  1  0  0
   -1.5922    2.0985   -0.0983 C   0  0  0  0  0  0  0  0  0  2  0  0
   -0.6419    2.3957    0.8726 C   0  0  0  0  0  0  0  0  0  3  0  0
   -0.7376    3.5705    1.6095 C   0  0  0  0  0  0  0  0  0  4  0  0
   -1.7872    4.4513    1.3749 C   0  0  0  0  0  0  0  0  0  5  0  0
   -2.7385    4.1562    0.4046 C   0  0  0  0  0  0  0  0  0  6  0  0
    0.4023    1.5101    1.0996 C   0  0  0  0  0  0  0  0  0  7  0  0
    0.4636    0.3476    0.3435 C   0  0  0  0  0  0  0  0  0  8  0  0
   -2.6411    2.9807   -0.3315 C   0  0  0  0  0  0  0  0  0  9  0  0
   -0.5170    0.1073   -0.6124 C   0  0  0  0  0  0  0  0  0 10  0  0
 10  8  4  0
  1 10  4  0
  9  6  4  0
  2  9  4  0
  7  8  4  0
  3  7  4  0
  5  6  4  0
  4  5  4  0
  3  4  4  0
  2  3  4  0
  1  2  4  0
M  END