2-naphthalenamine
  SciTegic01131010503D

 11 12  0  0  0  0            999 V2000
    1.4098    0.5235   -0.2186 C   0  0  0  0  0  0  0  0  0  1  0  0
    1.8340    1.3162    0.8427 C   0  0  0  0  0  0  0  0  0  2  0  0
    0.9064    2.0342    1.5886 C   0  0  0  0  0  0  0  0  0  3  0  0
   -0.4455    1.9597    1.2731 C   0  0  0  0  0  0  0  0  0  4  0  0
   -0.8694    1.1674    0.2121 C   0  0  0  0  0  0  0  0  0  5  0  0
   -2.2266    1.0929   -0.1041 N   0  0  0  0  0  0  0  0  0  6  0  0
    3.1859    1.3905    1.1580 C   0  0  0  0  0  0  0  0  0  7  0  0
    4.1136    0.6723    0.4120 C   0  0  0  0  0  0  0  0  0  8  0  0
    3.6895   -0.1200   -0.6490 C   0  0  0  0  0  0  0  0  0  9  0  0
    2.3375   -0.1945   -0.9645 C   0  0  0  0  0  0  0  0  0 10  0  0
    0.0581    0.4491   -0.5339 C   0  0  0  0  0  0  0  0  0 11  0  0
 11  5  4  0
  1 11  4  0
 10  9  4  0
  1 10  4  0
  8  9  4  0
  7  8  4  0
  2  7  4  0
  5  6  1  0
  4  5  4  0
  3  4  4  0
  2  3  4  0
  1  2  4  0
M  END