1,1'-biphenyl (PCB 0)
  SciTegic01131010503D

 12 13  0  0  0  0            999 V2000
    0.7813    0.1302    0.0652 C   0  0  0  0  0  0  0  0  0  1  0  0
    1.5909   -1.0693   -0.1379 C   0  0  0  0  0  0  0  0  0  2  0  0
    2.9089   -1.1013    0.3034 C   0  0  0  0  0  0  0  0  0  3  0  0
    3.6791   -2.2425    0.1102 C   0  0  0  0  0  0  0  0  0  4  0  0
    3.1311   -3.3516   -0.5244 C   0  0  0  0  0  0  0  0  0  5  0  0
    1.8130   -3.3196   -0.9657 C   0  0  0  0  0  0  0  0  0  6  0  0
    1.0429   -2.1785   -0.7725 C   0  0  0  0  0  0  0  0  0  7  0  0
    1.3293    1.2393    0.6998 C   0  0  0  0  0  0  0  0  0  8  0  0
    0.5592    2.3805    0.8931 C   0  0  0  0  0  0  0  0  0  9  0  0
   -0.7589    2.4124    0.4518 C   0  0  0  0  0  0  0  0  0 10  0  0
   -1.3069    1.3033   -0.1828 C   0  0  0  0  0  0  0  0  0 11  0  0
   -0.5367    0.1621   -0.3761 C   0  0  0  0  0  0  0  0  0 12  0  0
 12 11  4  0
  1 12  4  0
 10 11  4  0
  9 10  4  0
  8  9  4  0
  1  8  4  0
  7  6  4  0
  2  7  4  0
  5  6  4  0
  4  5  4  0
  3  4  4  0
  2  3  4  0
  1  2  1  0
M  END