1,1'-biphenyl -4,4'-diamine
  SciTegic01131010503D

 14 15  0  0  0  0            999 V2000
    2.8488   -0.7494   -0.7983 N   0  0  0  0  0  0  0  0  0  1  0  0
    1.8124   -0.0015   -0.2373 C   0  0  0  0  0  0  0  0  0  2  0  0
    2.0887    0.9380    0.7496 C   0  0  0  0  0  0  0  0  0  3  0  0
    1.0564    1.6829    1.3083 C   0  0  0  0  0  0  0  0  0  4  0  0
   -0.2519    1.4880    0.8800 C   0  0  0  0  0  0  0  0  0  5  0  0
   -1.3369    2.2710    1.4673 C   0  0  0  0  0  0  0  0  0  6  0  0
   -1.0607    3.2105    2.4542 C   0  0  0  0  0  0  0  0  0  7  0  0
   -2.0929    3.9554    3.0129 C   0  0  0  0  0  0  0  0  0  8  0  0
   -3.4012    3.7605    2.5846 C   0  0  0  0  0  0  0  0  0  9  0  0
   -4.4375    4.5084    3.1455 N   0  0  0  0  0  0  0  0  0 10  0  0
   -3.6775    2.8210    1.5977 C   0  0  0  0  0  0  0  0  0 11  0  0
   -2.6452    2.0761    1.0390 C   0  0  0  0  0  0  0  0  0 12  0  0
   -0.5281    0.5485   -0.1069 C   0  0  0  0  0  0  0  0  0 13  0  0
    0.5041   -0.1964   -0.6656 C   0  0  0  0  0  0  0  0  0 14  0  0
 14 13  4  0
  2 14  4  0
  5 13  4  0
 12 11  4  0
  6 12  4  0
  9 11  4  0
  9 10  1  0
  8  9  4  0
  7  8  4  0
  6  7  4  0
  5  6  1  0
  4  5  4  0
  3  4  4  0
  2  3  4  0
  1  2  1  0
M  END