benzo b thiophene
  SciTegic01131010503D

  9 10  0  0  0  0            999 V2000
    0.1071   -1.1778    1.2905 S   0  0  0  0  0  0  0  0  0  1  0  0
    1.1620    0.0506    1.2609 C   0  0  0  0  0  0  0  0  0  2  0  0
    0.5373    1.1454    0.7000 C   0  0  0  0  0  0  0  0  0  3  0  0
   -0.7890    0.8942    0.3267 C   0  0  0  0  0  0  0  0  0  4  0  0
    1.2189    2.3445    0.5522 C   0  0  0  0  0  0  0  0  0  5  0  0
    2.5430    2.4000    0.9868 C   0  0  0  0  0  0  0  0  0  6  0  0
    3.1650    1.2841    1.5535 C   0  0  0  0  0  0  0  0  0  7  0  0
    2.4761    0.0817    1.6998 C   0  0  0  0  0  0  0  0  0  8  0  0
   -1.1707   -0.4235    0.6146 C   0  0  0  0  0  0  0  0  0  9  0  0
  9  4  4  0
  1  9  4  0
  8  7  4  0
  2  8  4  0
  6  7  4  0
  5  6  4  0
  3  5  4  0
  3  4  4  0
  2  3  4  0
  1  2  4  0
M  END