benzene, 1,2-dichloro-
  SciTegic01131010503D

  8  8  0  0  0  0            999 V2000
    0.3850    0.6372    0.6281 C   0  0  0  0  0  0  0  0  0  1  0  0
    0.0647    1.9583    0.9196 C   0  0  0  0  0  0  0  0  0  2  0  0
   -0.7654    2.6771    0.0667 C   0  0  0  0  0  0  0  0  0  3  0  0
   -1.2752    2.0742   -1.0778 C   0  0  0  0  0  0  0  0  0  4  0  0
   -0.9549    0.7529   -1.3693 C   0  0  0  0  0  0  0  0  0  5  0  0
    0.6988    2.7062    2.3419 Cl  0  0  0  0  0  0  0  0  0  6  0  0
   -0.1248    0.0342   -0.5163 C   0  0  0  0  0  0  0  0  0  7  0  0
    1.4166   -0.2548    1.6887 Cl  0  0  0  0  0  0  0  0  0  8  0  0
  1  8  1  0
  7  5  4  0
  1  7  4  0
  2  6  1  0
  4  5  4  0
  3  4  4  0
  2  3  4  0
  1  2  4  0
M  END