benzenamine, 2-methyl-
  SciTegic01131010503D

  8  8  0  0  0  0            999 V2000
    1.2409   -0.0607    1.5828 N   0  0  0  0  0  0  0  0  0  1  0  0
    0.4128    0.6362    0.7017 C   0  0  0  0  0  0  0  0  0  2  0  0
    0.1108    1.9721    0.9413 C   0  0  0  0  0  0  0  0  0  3  0  0
   -0.7142    2.6667    0.0638 C   0  0  0  0  0  0  0  0  0  4  0  0
   -1.2371    2.0251   -1.0534 C   0  0  0  0  0  0  0  0  0  5  0  0
   -0.9351    0.6892   -1.2931 C   0  0  0  0  0  0  0  0  0  6  0  0
    0.6754    2.6641    2.1473 C   0  0  0  0  0  0  0  0  0  7  0  0
   -0.1101   -0.0053   -0.4155 C   0  0  0  0  0  0  0  0  0  8  0  0
  8  6  4  0
  2  8  4  0
  3  7  1  0
  5  6  4  0
  4  5  4  0
  3  4  4  0
  2  3  4  0
  1  2  1  0
M  END