benzene, 1,2,4,5-tetramethyl-
  SciTegic01131010503D

 10 10  0  0  0  0            999 V2000
    1.1524    0.7381    0.4507 C   0  0  0  0  0  0  0  0  0  1  0  0
    0.7643    1.8567    1.1818 C   0  0  0  0  0  0  0  0  0  2  0  0
   -0.5111    2.3847    1.0169 C   0  0  0  0  0  0  0  0  0  3  0  0
   -1.3996    1.7976    0.1233 C   0  0  0  0  0  0  0  0  0  4  0  0
   -1.0115    0.6790   -0.6077 C   0  0  0  0  0  0  0  0  0  5  0  0
   -1.9646    0.0366   -1.5765 C   0  0  0  0  0  0  0  0  0  6  0  0
   -2.7764    2.3764   -0.0475 C   0  0  0  0  0  0  0  0  0  7  0  0
    1.7174    2.4991    2.1506 C   0  0  0  0  0  0  0  0  0  8  0  0
    0.2639    0.1510   -0.4428 C   0  0  0  0  0  0  0  0  0  9  0  0
    2.5292    0.1593    0.6215 C   0  0  0  0  0  0  0  0  0 10  0  0
  1 10  1  0
  9  5  4  0
  1  9  4  0
  2  8  1  0
  4  7  1  0
  5  6  1  0
  4  5  4  0
  3  4  4  0
  2  3  4  0
  1  2  4  0
M  END