phenol, 2,4,5-trichloro-
  SciTegic01131010503D

 10 10  0  0  0  0            999 V2000
    2.5792    0.8614    0.2035 O   0  0  0  0  0  0  0  0  0  1  0  0
    1.2068    1.0732    0.2766 C   0  0  0  0  0  0  0  0  0  2  0  0
    0.7024    2.0845    1.0863 C   0  0  0  0  0  0  0  0  0  3  0  0
   -0.6695    2.2972    1.1602 C   0  0  0  0  0  0  0  0  0  4  0  0
   -1.5366    1.4980    0.4238 C   0  0  0  0  0  0  0  0  0  5  0  0
   -1.0322    0.4868   -0.3860 C   0  0  0  0  0  0  0  0  0  6  0  0
   -2.1110   -0.5054   -1.3004 Cl  0  0  0  0  0  0  0  0  0  7  0  0
   -3.2416    1.7611    0.5144 Cl  0  0  0  0  0  0  0  0  0  8  0  0
    1.7811    3.0767    2.0007 Cl  0  0  0  0  0  0  0  0  0  9  0  0
    0.3397    0.2740   -0.4598 C   0  0  0  0  0  0  0  0  0 10  0  0
 10  6  4  0
  2 10  4  0
  3  9  1  0
  5  8  1  0
  6  7  1  0
  5  6  4  0
  4  5  4  0
  3  4  4  0
  2  3  4  0
  1  2  1  0
M  END