oxirane, phenyl-
  SciTegic01131010503D

  9 10  0  0  0  0            999 V2000
    0.9874   -2.0031    0.7578 O   0  0  0  0  0  0  0  0  0  1  0  0
    1.6799   -0.7817    0.3718 C   0  0  0  0  0  0  0  0  0  2  0  0
    0.6763    0.3364    0.2992 C   0  0  0  0  0  0  0  0  0  3  0  0
    1.0771    1.6425    0.5568 C   0  0  0  0  0  0  0  0  0  4  0  0
    0.1531    2.6794    0.4924 C   0  0  0  0  0  0  0  0  0  5  0  0
   -1.1726    2.4105    0.1708 C   0  0  0  0  0  0  0  0  0  6  0  0
   -1.5743    1.1046   -0.0863 C   0  0  0  0  0  0  0  0  0  7  0  0
   -0.6502    0.0679   -0.0219 C   0  0  0  0  0  0  0  0  0  8  0  0
    1.3092   -1.8578   -0.6286 C   0  0  0  0  0  0  0  0  0  9  0  0
  9  2  1  0
  1  9  1  0
  8  7  4  0
  3  8  4  0
  6  7  4  0
  5  6  4  0
  4  5  4  0
  3  4  4  0
  2  3  1  0
  1  2  1  0
M  END