benzene, (1-methylethyl)-
  SciTegic01131010503D

  9  9  0  0  0  0            999 V2000
    0.6895    0.3626    0.1924 C   0  0  0  0  0  0  0  0  0  1  0  0
    0.9607    1.6036    0.7586 C   0  0  0  0  0  0  0  0  0  2  0  0
   -0.0044    2.6042    0.7389 C   0  0  0  0  0  0  0  0  0  3  0  0
   -1.2420    2.3649    0.1524 C   0  0  0  0  0  0  0  0  0  4  0  0
   -1.5140    1.1250   -0.4145 C   0  0  0  0  0  0  0  0  0  5  0  0
   -0.5487    0.1246   -0.3946 C   0  0  0  0  0  0  0  0  0  6  0  0
    1.7360   -0.7214    0.2130 C   0  0  0  0  0  0  0  0  0  7  0  0
    1.1290   -2.1353    0.1253 C   0  0  0  0  0  0  0  0  0  8  0  0
    2.7481   -0.5489    1.3623 C   0  0  0  0  0  0  0  0  0  9  0  0
  7  9  1  0
  7  8  1  0
  1  7  1  0
  6  5  4  0
  1  6  4  0
  4  5  4  0
  3  4  4  0
  2  3  4  0
  1  2  4  0
M  END