benzene, nitro-
  SciTegic01131010503D

  9  9  0  0  0  0            999 V2000
    1.9180   -0.5683    0.3407 N   0  0  0  0  0  0  0  0  0  1  0  0
    2.6425   -0.1423    1.1628 O   0  0  0  0  0  0  0  0  0  2  0  0
    1.6638   -1.4058   -0.4444 O   0  0  0  0  0  0  0  0  0  3  0  0
    0.8674    0.3509    0.2578 C   0  0  0  0  0  0  0  0  0  4  0  0
    0.8645    1.4795    1.0703 C   0  0  0  0  0  0  0  0  0  5  0  0
   -0.1799    2.3933    0.9879 C   0  0  0  0  0  0  0  0  0  6  0  0
   -1.2221    2.1790    0.0929 C   0  0  0  0  0  0  0  0  0  7  0  0
   -1.2197    1.0508   -0.7197 C   0  0  0  0  0  0  0  0  0  8  0  0
   -0.1752    0.1370   -0.6372 C   0  0  0  0  0  0  0  0  0  9  0  0
  9  8  4  0
  4  9  4  0
  7  8  4  0
  6  7  4  0
  5  6  4  0
  4  5  4  0
  1  4  1  0
  1  3  2  0
  1  2  2  0
M  END