benzene, 1-methyl-4-nitro-
  SciTegic01131010503D

 10 10  0  0  0  0            999 V2000
    2.1779   -0.6230   -0.0515 N   0  0  0  0  0  0  0  0  0  1  0  0
    3.0536   -0.2316    0.6284 O   0  0  0  0  0  0  0  0  0  2  0  0
    1.7887   -1.3885   -0.8546 O   0  0  0  0  0  0  0  0  0  3  0  0
    1.0909    0.2127    0.2236 C   0  0  0  0  0  0  0  0  0  4  0  0
    1.2221    1.2430    1.1483 C   0  0  0  0  0  0  0  0  0  5  0  0
    0.1416    2.0739    1.4219 C   0  0  0  0  0  0  0  0  0  6  0  0
   -1.0705    1.8746    0.7707 C   0  0  0  0  0  0  0  0  0  7  0  0
   -1.2023    0.8447   -0.1539 C   0  0  0  0  0  0  0  0  0  8  0  0
   -2.2369    2.7714    1.0660 C   0  0  0  0  0  0  0  0  0  9  0  0
   -0.1217    0.0140   -0.4273 C   0  0  0  0  0  0  0  0  0 10  0  0
 10  8  4  0
  4 10  4  0
  7  9  1  0
  7  8  4  0
  6  7  4  0
  5  6  4  0
  4  5  4  0
  1  4  1  0
  1  3  2  0
  1  2  2  0
M  END