phenol, 4-nitro-
  SciTegic01131010503D

 10 10  0  0  0  0            999 V2000
    2.1921   -0.8712   -0.0071 N   0  0  0  0  0  0  0  0  0  1  0  0
    2.9870   -0.7431    0.8497 O   0  0  0  0  0  0  0  0  0  2  0  0
    1.8410   -1.4241   -0.9834 O   0  0  0  0  0  0  0  0  0  3  0  0
    1.2006    0.0780    0.2602 C   0  0  0  0  0  0  0  0  0  4  0  0
    1.3161    0.9120    1.3669 C   0  0  0  0  0  0  0  0  0  5  0  0
    0.3305    1.8556    1.6327 C   0  0  0  0  0  0  0  0  0  6  0  0
   -0.7711    1.9656    0.7917 C   0  0  0  0  0  0  0  0  0  7  0  0
   -1.7572    2.9096    1.0575 O   0  0  0  0  0  0  0  0  0  8  0  0
   -0.8872    1.1321   -0.3150 C   0  0  0  0  0  0  0  0  0  9  0  0
    0.0985    0.1885   -0.5806 C   0  0  0  0  0  0  0  0  0 10  0  0
 10  9  4  0
  4 10  4  0
  7  9  4  0
  7  8  1  0
  6  7  4  0
  5  6  4  0
  4  5  4  0
  1  4  1  0
  1  3  2  0
  1  2  2  0
M  END