benzene, ethyl-
  SciTegic01131010503D

  8  8  0  0  0  0            999 V2000
    0.7748    0.4367    0.3881 C   0  0  0  0  0  0  0  0  0  1  0  0
    0.9840    1.7689    0.7269 C   0  0  0  0  0  0  0  0  0  2  0  0
   -0.0255    2.7045    0.5308 C   0  0  0  0  0  0  0  0  0  3  0  0
   -1.2461    2.3088   -0.0045 C   0  0  0  0  0  0  0  0  0  4  0  0
   -1.4568    0.9771   -0.3438 C   0  0  0  0  0  0  0  0  0  5  0  0
   -0.4469    0.0418   -0.1476 C   0  0  0  0  0  0  0  0  0  6  0  0
    1.8758   -0.5703    0.6044 C   0  0  0  0  0  0  0  0  0  7  0  0
    1.4173   -1.9740    0.1582 C   0  0  0  0  0  0  0  0  0  8  0  0
  7  8  1  0
  1  7  1  0
  6  5  4  0
  1  6  4  0
  4  5  4  0
  3  4  4  0
  2  3  4  0
  1  2  4  0
M  END