benzene, ethenyl-
  SciTegic01131010503D

  8  8  0  0  0  0            999 V2000
    1.4573    0.0054    0.3702 C   0  0  0  0  0  0  0  0  0  1  0  0
    2.4903   -0.8538    0.7276 C   0  0  0  0  0  0  0  0  0  2  0  0
    3.8126   -0.4653    0.5441 C   0  0  0  0  0  0  0  0  0  3  0  0
    4.1020    0.7825    0.0032 C   0  0  0  0  0  0  0  0  0  4  0  0
    3.0691    1.6419   -0.3542 C   0  0  0  0  0  0  0  0  0  5  0  0
    1.7469    1.2534   -0.1707 C   0  0  0  0  0  0  0  0  0  6  0  0
    0.0664   -0.4055    0.5642 C   0  0  0  0  0  0  0  0  0  7  0  0
   -0.9264    0.4137    0.2236 C   0  0  0  0  0  0  0  0  0  8  0  0
  7  8  2  0
  1  7  1  0
  6  5  4  0
  1  6  4  0
  4  5  4  0
  3  4  4  0
  2  3  4  0
  1  2  4  0
M  END