benzenemethanol
  SciTegic01131010503D

  8  8  0  0  0  0            999 V2000
    3.0598   -0.1899    0.6379 O   0  0  0  0  0  0  0  0  0  1  0  0
    1.7970   -0.7893    0.3391 C   0  0  0  0  0  0  0  0  0  2  0  0
    0.7484    0.2790    0.2439 C   0  0  0  0  0  0  0  0  0  3  0  0
    1.0947    1.6112    0.4399 C   0  0  0  0  0  0  0  0  0  4  0  0
    0.1232    2.6019    0.3518 C   0  0  0  0  0  0  0  0  0  5  0  0
   -1.1944    2.2602    0.0677 C   0  0  0  0  0  0  0  0  0  6  0  0
   -1.5404    0.9278   -0.1283 C   0  0  0  0  0  0  0  0  0  7  0  0
   -0.5689   -0.0630   -0.0402 C   0  0  0  0  0  0  0  0  0  8  0  0
  8  7  4  0
  3  8  4  0
  6  7  4  0
  5  6  4  0
  4  5  4  0
  3  4  4  0
  2  3  1  0
  1  2  1  0
M  END