benzene, methoxy-
  SciTegic01131010503D

  8  8  0  0  0  0            999 V2000
    1.8112   -0.5334    0.5909 O   0  0  0  0  0  0  0  0  0  1  0  0
    0.7838    0.4036    0.3859 C   0  0  0  0  0  0  0  0  0  2  0  0
    0.9963    1.7345    0.7284 C   0  0  0  0  0  0  0  0  0  3  0  0
   -0.0084    2.6755    0.5327 C   0  0  0  0  0  0  0  0  0  4  0  0
   -1.2295    2.2873   -0.0066 C   0  0  0  0  0  0  0  0  0  5  0  0
   -1.4452    0.9577   -0.3501 C   0  0  0  0  0  0  0  0  0  6  0  0
   -0.4399    0.0173   -0.1541 C   0  0  0  0  0  0  0  0  0  7  0  0
    1.4092   -1.8488    0.1796 C   0  0  0  0  0  0  0  0  0  8  0  0
  1  8  1  0
  7  6  4  0
  2  7  4  0
  5  6  4  0
  4  5  4  0
  3  4  4  0
  2  3  4  0
  1  2  1  0
M  END