benzene, propyl-
  SciTegic01131010503D

  9  9  0  0  0  0            999 V2000
    0.6166    0.5247    0.4830 C   0  0  0  0  0  0  0  0  0  1  0  0
    1.0391    1.8488    0.4348 C   0  0  0  0  0  0  0  0  0  2  0  0
    0.1162    2.8741    0.2614 C   0  0  0  0  0  0  0  0  0  3  0  0
   -1.2367    2.5791    0.1394 C   0  0  0  0  0  0  0  0  0  4  0  0
   -1.6650    1.2579    0.1933 C   0  0  0  0  0  0  0  0  0  5  0  0
   -0.7406    0.2342    0.3669 C   0  0  0  0  0  0  0  0  0  6  0  0
    1.6546   -0.5733    0.6876 C   0  0  0  0  0  0  0  0  0  7  0  0
    1.1132   -2.0092    0.4274 C   0  0  0  0  0  0  0  0  0  8  0  0
    0.8982   -2.2641   -1.0895 C   0  0  0  0  0  0  0  0  0  9  0  0
  8  9  1  0
  7  8  1  0
  1  7  1  0
  6  5  4  0
  1  6  4  0
  4  5  4  0
  3  4  4  0
  2  3  4  0
  1  2  4  0
M  END