benzeneacetic acid
  SciTegic01131010503D

 10 10  0  0  0  0            999 V2000
    3.8000   -1.4409    0.8457 O   0  0  0  0  0  0  0  0  0  1  0  0
    2.9876   -0.6049    0.4350 C   0  0  0  0  0  0  0  0  0  2  0  0
    3.4590    0.4683   -0.3186 O   0  0  0  0  0  0  0  0  0  3  0  0
    1.4972   -0.8364    0.7053 C   0  0  0  0  0  0  0  0  0  4  0  0
    0.5363    0.3018    0.3487 C   0  0  0  0  0  0  0  0  0  5  0  0
    0.9800    1.5723   -0.0050 C   0  0  0  0  0  0  0  0  0  6  0  0
    0.0707    2.5778   -0.3129 C   0  0  0  0  0  0  0  0  0  7  0  0
   -1.2937    2.3184   -0.2667 C   0  0  0  0  0  0  0  0  0  8  0  0
   -1.7440    1.0528    0.0894 C   0  0  0  0  0  0  0  0  0  9  0  0
   -0.8310    0.0505    0.3970 C   0  0  0  0  0  0  0  0  0 10  0  0
 10  9  4  0
  5 10  4  0
  8  9  4  0
  7  8  4  0
  6  7  4  0
  5  6  4  0
  4  5  1  0
  2  4  1  0
  2  3  1  0
  1  2  2  0
M  END