phenol, 2,4-dimethyl-
  SciTegic01131010503D

  9  9  0  0  0  0            999 V2000
    2.3426    0.1721    0.9024 O   0  0  0  0  0  0  0  0  0  1  0  0
    1.0757    0.6468    0.5809 C   0  0  0  0  0  0  0  0  0  2  0  0
    0.6451    1.8710    1.0796 C   0  0  0  0  0  0  0  0  0  3  0  0
   -0.6213    2.3461    0.7585 C   0  0  0  0  0  0  0  0  0  4  0  0
   -1.4570    1.5965   -0.0615 C   0  0  0  0  0  0  0  0  0  5  0  0
   -1.0267    0.3721   -0.5605 C   0  0  0  0  0  0  0  0  0  6  0  0
   -2.8239    2.1091   -0.4081 C   0  0  0  0  0  0  0  0  0  7  0  0
    1.5475    2.6796    1.9646 C   0  0  0  0  0  0  0  0  0  8  0  0
    0.2399   -0.1028   -0.2392 C   0  0  0  0  0  0  0  0  0  9  0  0
  9  6  4  0
  2  9  4  0
  3  8  1  0
  5  7  1  0
  5  6  4  0
  4  5  4  0
  3  4  4  0
  2  3  4  0
  1  2  1  0
M  END