benzene, 1,4-dimethyl-
  SciTegic01131010503D

  8  8  0  0  0  0            999 V2000
    1.2293    0.3620    0.1020 C   0  0  0  0  0  0  0  0  0  1  0  0
    1.3459    1.6510    0.6100 C   0  0  0  0  0  0  0  0  0  2  0  0
    0.2057    2.3675    0.9556 C   0  0  0  0  0  0  0  0  0  3  0  0
   -1.0509    1.7949    0.7931 C   0  0  0  0  0  0  0  0  0  4  0  0
   -1.1675    0.5059    0.2851 C   0  0  0  0  0  0  0  0  0  5  0  0
   -2.2815    2.5684    1.1661 C   0  0  0  0  0  0  0  0  0  6  0  0
   -0.0273   -0.2106   -0.0605 C   0  0  0  0  0  0  0  0  0  7  0  0
    2.4599   -0.4115   -0.2710 C   0  0  0  0  0  0  0  0  0  8  0  0
  1  8  1  0
  7  5  4  0
  1  7  4  0
  4  6  1  0
  4  5  4  0
  3  4  4  0
  2  3  4  0
  1  2  4  0
M  END