benzenamine, 4-chloro-
  SciTegic01131010503D

  8  8  0  0  0  0            999 V2000
    2.4006   -0.3156   -0.3928 N   0  0  0  0  0  0  0  0  0  1  0  0
    1.2593    0.3724    0.0220 C   0  0  0  0  0  0  0  0  0  2  0  0
    1.3738    1.6530    0.5512 C   0  0  0  0  0  0  0  0  0  3  0  0
    0.2369    2.3384    0.9644 C   0  0  0  0  0  0  0  0  0  4  0  0
   -1.0142    1.7430    0.8482 C   0  0  0  0  0  0  0  0  0  5  0  0
   -1.1287    0.4623    0.3189 C   0  0  0  0  0  0  0  0  0  6  0  0
   -2.4271    2.5947    1.3616 Cl  0  0  0  0  0  0  0  0  0  7  0  0
    0.0082   -0.2230   -0.0942 C   0  0  0  0  0  0  0  0  0  8  0  0
  8  6  4  0
  2  8  4  0
  5  7  1  0
  5  6  4  0
  4  5  4  0
  3  4  4  0
  2  3  4  0
  1  2  1  0
M  END