1,3-butadiene
  SciTegic01131010503D

  4  3  0  0  0  0            999 V2000
   -0.1623    0.0285   -0.4102 C   0  0  0  0  0  0  0  0  0  1  0  0
    1.1651   -0.4097    0.0299 C   0  0  0  0  0  0  0  0  0  2  0  0
    1.7711    0.2026    1.0455 C   0  0  0  0  0  0  0  0  0  3  0  0
   -0.7715    1.0419    0.2027 C   0  0  0  0  0  0  0  0  0  4  0  0
  1  4  2  0
  2  3  2  0
  1  2  1  0
M  END