2-propenal
  SciTegic01131010503D

  4  3  0  0  0  0            999 V2000
    1.7312    0.2066   -0.9940 O   0  0  0  0  0  0  0  0  0  1  0  0
    1.1786   -0.4017   -0.0707 C   0  0  0  0  0  0  0  0  0  2  0  0
   -0.1476    0.0124    0.3863 C   0  0  0  0  0  0  0  0  0  3  0  0
   -0.7581    1.0441   -0.1926 C   0  0  0  0  0  0  0  0  0  4  0  0
  3  4  2  0
  2  3  1  0
  1  2  2  0
M  END