2-propenenitrile
  SciTegic01131010503D

  4  3  0  0  0  0            999 V2000
    1.2149   -0.0724   -0.0007 C   0  0  0  0  0  0  0  0  0  1  0  0
    2.3659   -0.0728   -0.0016 N   0  0  0  0  0  0  0  0  0  2  0  0
   -0.2093   -0.0718    0.0005 C   0  0  0  0  0  0  0  0  0  3  0  0
   -0.8741    1.0816    0.0020 C   0  0  0  0  0  0  0  0  0  4  0  0
  3  4  2  0
  1  3  1  0
  1  2  3  0
M  END