formic acid, methyl ester
  SciTegic01131010503D

  4  3  0  0  0  0            999 V2000
   -0.1673    0.2476   -0.1314 O   0  0  0  0  0  0  0  0  0  1  0  0
    0.8557   -0.4422   -0.0489 C   0  0  0  0  0  0  0  0  0  2  0  0
    1.9057   -0.0446    0.7774 O   0  0  0  0  0  0  0  0  0  3  0  0
    1.5727    1.1869    1.4260 C   0  0  0  0  0  0  0  0  0  4  0  0
  3  4  1  0
  2  3  1  0
  1  2  2  0
M  END