2-pentanone
  SciTegic01131010503D

  6  5  0  0  0  0            999 V2000
   -0.3333   -0.9613   -0.3708 O   0  0  0  0  0  0  0  0  0  1  0  0
    0.6912   -0.2957   -0.1840 C   0  0  0  0  0  0  0  0  0  2  0  0
    1.0799    0.0775    1.2452 C   0  0  0  0  0  0  0  0  0  3  0  0
    2.2123    1.1418    1.3401 C   0  0  0  0  0  0  0  0  0  4  0  0
    1.6903    2.5531    0.9530 C   0  0  0  0  0  0  0  0  0  5  0  0
    1.5992   -0.0046   -1.3593 C   0  0  0  0  0  0  0  0  0  6  0  0
  2  6  1  0
  4  5  1  0
  3  4  1  0
  2  3  1  0
  1  2  2  0
M  END