butanoic acid
  SciTegic01131010503D

  6  5  0  0  0  0            999 V2000
   -0.2659   -1.0218    0.3738 O   0  0  0  0  0  0  0  0  0  1  0  0
    0.6969   -0.2779    0.1559 C   0  0  0  0  0  0  0  0  0  2  0  0
    1.4657    0.1818    1.2246 O   0  0  0  0  0  0  0  0  0  3  0  0
    1.0652    0.0663   -1.2710 C   0  0  0  0  0  0  0  0  0  4  0  0
    2.2180    1.0986   -1.3356 C   0  0  0  0  0  0  0  0  0  5  0  0
    1.7559    2.4648   -0.7789 C   0  0  0  0  0  0  0  0  0  6  0  0
  5  6  1  0
  4  5  1  0
  2  4  1  0
  2  3  1  0
  1  2  2  0
M  END