acetic acid ethenyl ester
  SciTegic01131010503D

  6  5  0  0  0  0            999 V2000
    0.9024    2.1394    0.1333 O   0  0  0  0  0  0  0  0  0  1  0  0
    1.5738    1.1123   -0.0178 C   0  0  0  0  0  0  0  0  0  2  0  0
    0.9980   -0.1958   -0.1117 O   0  0  0  0  0  0  0  0  0  3  0  0
   -0.4275   -0.3329   -0.0276 C   0  0  0  0  0  0  0  0  0  4  0  0
   -1.2911    0.6702    0.1343 C   0  0  0  0  0  0  0  0  0  5  0  0
    3.0664    1.2424   -0.1073 C   0  0  0  0  0  0  0  0  0  6  0  0
  2  6  1  0
  4  5  2  0
  3  4  1  0
  2  3  1  0
  1  2  2  0
M  END