2-pentanone, 4-methyl-
  SciTegic01131010503D

  7  6  0  0  0  0            999 V2000
   -0.1226   -1.2517   -0.4905 O   0  0  0  0  0  0  0  0  0  1  0  0
    0.6856   -0.3440   -0.2652 C   0  0  0  0  0  0  0  0  0  2  0  0
    0.8577    0.1200    1.2110 C   0  0  0  0  0  0  0  0  0  3  0  0
    1.8760    1.2775    1.5679 C   0  0  0  0  0  0  0  0  0  4  0  0
    1.4954    2.6576    0.9717 C   0  0  0  0  0  0  0  0  0  5  0  0
    3.3603    0.9150    1.3020 C   0  0  0  0  0  0  0  0  0  6  0  0
    1.4396    0.2387   -1.4479 C   0  0  0  0  0  0  0  0  0  7  0  0
  2  7  1  0
  4  6  1  0
  4  5  1  0
  3  4  1  0
  2  3  1  0
  1  2  2  0
M  END