benzene, 1,3-dimethyl-
  SciTegic01131010503D

  8  8  0  0  0  0            999 V2000
    1.0378    0.4662    0.4788 C   0  0  0  0  0  0  0  0  0  1  0  0
    1.1107    1.7293    1.0554 C   0  0  0  0  0  0  0  0  0  2  0  0
    0.0705    2.6349    0.8792 C   0  0  0  0  0  0  0  0  0  3  0  0
   -1.0425    2.2773    0.1265 C   0  0  0  0  0  0  0  0  0  4  0  0
   -1.1151    1.0141   -0.4499 C   0  0  0  0  0  0  0  0  0  5  0  0
   -2.3162    0.6280   -1.2623 C   0  0  0  0  0  0  0  0  0  6  0  0
   -0.0751    0.1084   -0.2739 C   0  0  0  0  0  0  0  0  0  7  0  0
    2.1603   -0.5112    0.6688 C   0  0  0  0  0  0  0  0  0  8  0  0
  1  8  1  0
  7  5  4  0
  1  7  4  0
  5  6  1  0
  4  5  4  0
  3  4  4  0
  2  3  4  0
  1  2  4  0
M  END