benzene, 1,3,5-trimethyl-
  SciTegic01131010503D

  9  9  0  0  0  0            999 V2000
    0.9843    0.2870    0.5431 C   0  0  0  0  0  0  0  0  0  1  0  0
    1.2516    1.6450    0.6751 C   0  0  0  0  0  0  0  0  0  2  0  0
    0.3213    2.5817    0.2392 C   0  0  0  0  0  0  0  0  0  3  0  0
   -0.8760    2.1609   -0.3285 C   0  0  0  0  0  0  0  0  0  4  0  0
   -1.1429    0.8028   -0.4603 C   0  0  0  0  0  0  0  0  0  5  0  0
   -2.4348    0.3484   -1.0729 C   0  0  0  0  0  0  0  0  0  6  0  0
    0.6095    4.0471    0.3814 C   0  0  0  0  0  0  0  0  0  7  0  0
   -0.2129   -0.1343   -0.0245 C   0  0  0  0  0  0  0  0  0  8  0  0
    1.9880   -0.7240    1.0134 C   0  0  0  0  0  0  0  0  0  9  0  0
  1  9  1  0
  8  5  4  0
  1  8  4  0
  3  7  1  0
  5  6  1  0
  4  5  4  0
  3  4  4  0
  2  3  4  0
  1  2  4  0
M  END