benzene, 1,3,5-trichloro-
  SciTegic01131010503D

  9  9  0  0  0  0            999 V2000
    0.9694    0.2762    0.5506 C   0  0  0  0  0  0  0  0  0  1  0  0
    1.2533    1.6311    0.6799 C   0  0  0  0  0  0  0  0  0  2  0  0
    0.3371    2.5785    0.2371 C   0  0  0  0  0  0  0  0  0  3  0  0
   -0.8629    2.1711   -0.3349 C   0  0  0  0  0  0  0  0  0  4  0  0
   -1.1466    0.8162   -0.4642 C   0  0  0  0  0  0  0  0  0  5  0  0
   -2.6376    0.3099   -1.1750 Cl  0  0  0  0  0  0  0  0  0  6  0  0
    0.6897    4.2621    0.3978 Cl  0  0  0  0  0  0  0  0  0  7  0  0
   -0.2305   -0.1314   -0.0214 C   0  0  0  0  0  0  0  0  0  8  0  0
    2.1078   -0.9012    1.1007 Cl  0  0  0  0  0  0  0  0  0  9  0  0
  1  9  1  0
  8  5  4  0
  1  8  4  0
  3  7  1  0
  5  6  1  0
  4  5  4  0
  3  4  4  0
  2  3  4  0
  1  2  4  0
M  END