benzene, bromo-
  SciTegic01131010503D

  7  7  0  0  0  0            999 V2000
    0.8474    0.4683    0.4300 C   0  0  0  0  0  0  0  0  0  1  0  0
    0.9685    1.8146    0.7556 C   0  0  0  0  0  0  0  0  0  2  0  0
   -0.0897    2.6849    0.5188 C   0  0  0  0  0  0  0  0  0  3  0  0
   -1.2689    2.2087   -0.0434 C   0  0  0  0  0  0  0  0  0  4  0  0
   -1.3900    0.8623   -0.3690 C   0  0  0  0  0  0  0  0  0  5  0  0
   -0.3318   -0.0080   -0.1322 C   0  0  0  0  0  0  0  0  0  6  0  0
    2.2941   -0.7215    0.7537 Br  0  0  0  0  0  0  0  0  0  7  0  0
  1  7  1  0
  6  5  4  0
  1  6  4  0
  4  5  4  0
  3  4  4  0
  2  3  4  0
  1  2  4  0
M  END