cyclohexane, methyl-
  SciTegic01131010503D

  7  7  0  0  0  0            999 V2000
    0.1095    0.7170    0.7242 C   0  0  0  0  0  0  0  0  0  1  0  0
   -0.0682    2.1535    1.2302 C   0  0  0  0  0  0  0  0  0  2  0  0
    0.9367    3.0845    0.4815 C   0  0  0  0  0  0  0  0  0  3  0  0
    1.5333    2.3799   -0.7771 C   0  0  0  0  0  0  0  0  0  4  0  0
    0.3893    1.7742   -1.5990 C   0  0  0  0  0  0  0  0  0  5  0  0
   -0.3084    0.6548   -0.7746 C   0  0  0  0  0  0  0  0  0  6  0  0
   -0.7614   -0.2651    1.5298 C   0  0  0  0  0  0  0  0  0  7  0  0
  1  7  1  0
  6  5  1  0
  1  6  1  0
  4  5  1  0
  3  4  1  0
  2  3  1  0
  1  2  1  0
M  END