cyclohexanamine
  SciTegic01131010503D

  7  7  0  0  0  0            999 V2000
   -0.3524   -0.6961   -0.0428 N   0  0  0  0  0  0  0  0  0  1  0  0
    0.5668    0.3138    0.5339 C   0  0  0  0  0  0  0  0  0  2  0  0
   -0.2405    1.5319    1.0002 C   0  0  0  0  0  0  0  0  0  3  0  0
   -1.0930    2.0997   -0.1963 C   0  0  0  0  0  0  0  0  0  4  0  0
   -0.4345    1.8142   -1.5900 C   0  0  0  0  0  0  0  0  0  5  0  0
    1.0750    1.9431   -1.4517 C   0  0  0  0  0  0  0  0  0  6  0  0
    1.6337    0.8290   -0.4971 C   0  0  0  0  0  0  0  0  0  7  0  0
  7  6  1  0
  2  7  1  0
  5  6  1  0
  4  5  1  0
  3  4  1  0
  2  3  1  0
  1  2  1  0
M  END