cyclohexanol
  SciTegic01131010503D

  7  7  0  0  0  0            999 V2000
   -0.2779   -0.6881   -0.2165 O   0  0  0  0  0  0  0  0  0  1  0  0
    0.5400    0.2631    0.4914 C   0  0  0  0  0  0  0  0  0  2  0  0
   -0.3433    1.4085    1.0010 C   0  0  0  0  0  0  0  0  0  3  0  0
   -1.1347    2.0459   -0.2007 C   0  0  0  0  0  0  0  0  0  4  0  0
   -0.3876    1.8714   -1.5671 C   0  0  0  0  0  0  0  0  0  5  0  0
    1.1060    2.0477   -1.3333 C   0  0  0  0  0  0  0  0  0  6  0  0
    1.6517    0.8981   -0.4167 C   0  0  0  0  0  0  0  0  0  7  0  0
  7  6  1  0
  2  7  1  0
  5  6  1  0
  4  5  1  0
  3  4  1  0
  2  3  1  0
  1  2  1  0
M  END