pyridine, 3-methyl-
  SciTegic01131010503D

  7  7  0  0  0  0            999 V2000
    0.6703    0.7436    1.3550 N   0  0  0  0  0  0  0  0  0  1  0  0
    0.8222    2.0644    1.3751 C   0  0  0  0  0  0  0  0  0  2  0  0
    0.1546    2.8696    0.4588 C   0  0  0  0  0  0  0  0  0  3  0  0
   -0.6769    2.2790   -0.4830 C   0  0  0  0  0  0  0  0  0  4  0  0
   -0.8132    0.8976   -0.4764 C   0  0  0  0  0  0  0  0  0  5  0  0
   -1.7024    0.2196   -1.4777 C   0  0  0  0  0  0  0  0  0  6  0  0
   -0.1186    0.1480    0.4660 C   0  0  0  0  0  0  0  0  0  7  0  0
  7  5  4  0
  1  7  4  0
  5  6  1  0
  4  5  4  0
  3  4  4  0
  2  3  4  0
  1  2  4  0
M  END