pentane
  SciTegic01131010503D

  5  4  0  0  0  0            999 V2000
   -0.3695   -0.0676   -0.3986 C   0  0  0  0  0  0  0  0  0  1  0  0
    1.1445   -0.2876   -0.1629 C   0  0  0  0  0  0  0  0  0  2  0  0
    1.5829    0.3007    1.2002 C   0  0  0  0  0  0  0  0  0  3  0  0
    0.8746   -0.4432    2.3559 C   0  0  0  0  0  0  0  0  0  4  0  0
   -0.6830    1.4441   -0.4835 C   0  0  0  0  0  0  0  0  0  5  0  0
  1  5  1  0
  3  4  1  0
  2  3  1  0
  1  2  1  0
M  END