1-pentene
  SciTegic01131010503D

  5  4  0  0  0  0            999 V2000
   -0.2076   -0.4255   -0.3536 C   0  0  0  0  0  0  0  0  0  1  0  0
    0.7405   -0.9577    0.4200 C   0  0  0  0  0  0  0  0  0  2  0  0
   -0.6997    1.0010   -0.1580 C   0  0  0  0  0  0  0  0  0  3  0  0
    0.3517    1.9215    0.5244 C   0  0  0  0  0  0  0  0  0  4  0  0
    1.5424    2.2077   -0.4282 C   0  0  0  0  0  0  0  0  0  5  0  0
  4  5  1  0
  3  4  1  0
  1  3  1  0
  1  2  2  0
M  END