1-butanamine
  SciTegic01131010503D

  5  4  0  0  0  0            999 V2000
    0.1476   -0.0831   -1.0305 N   0  0  0  0  0  0  0  0  0  1  0  0
    1.4111    0.2592   -0.3563 C   0  0  0  0  0  0  0  0  0  2  0  0
    1.5091   -0.3460    1.0803 C   0  0  0  0  0  0  0  0  0  3  0  0
    0.4882    0.2709    2.0894 C   0  0  0  0  0  0  0  0  0  4  0  0
   -0.9756   -0.0982    1.7627 C   0  0  0  0  0  0  0  0  0  5  0  0
  4  5  1  0
  3  4  1  0
  2  3  1  0
  1  2  1  0
M  END