thiophene
  SciTegic01131010503D

  5  5  0  0  0  0            999 V2000
    0.2551    2.0286   -0.0012 S   0  0  0  0  0  0  0  0  0  1  0  0
    1.6497    1.1103    0.0004 C   0  0  0  0  0  0  0  0  0  2  0  0
    1.2616   -0.1719    0.0019 C   0  0  0  0  0  0  0  0  0  3  0  0
   -0.2570   -0.3364    0.0016 C   0  0  0  0  0  0  0  0  0  4  0  0
   -0.9107    0.8330   -0.0001 C   0  0  0  0  0  0  0  0  0  5  0  0
  5  1  4  0
  4  5  4  0
  3  4  4  0
  2  3  4  0
  1  2  4  0
M  END