2-heptanone
  SciTegic01131010503D

  8  7  0  0  0  0            999 V2000
    1.3356   -1.4907    1.2192 O   0  0  0  0  0  0  0  0  0  1  0  0
    1.7284   -0.3604    0.9101 C   0  0  0  0  0  0  0  0  0  2  0  0
    1.0244    0.8583    1.4889 C   0  0  0  0  0  0  0  0  0  3  0  0
    1.4868    2.2015    0.8368 C   0  0  0  0  0  0  0  0  0  4  0  0
    0.5953    2.7759   -0.3554 C   0  0  0  0  0  0  0  0  0  5  0  0
    0.4924    1.9369   -1.6799 C   0  0  0  0  0  0  0  0  0  6  0  0
   -0.5117    0.7599   -1.5892 C   0  0  0  0  0  0  0  0  0  7  0  0
    2.9681   -0.2142    0.0619 C   0  0  0  0  0  0  0  0  0  8  0  0
  2  8  1  0
  6  7  1  0
  5  6  1  0
  4  5  1  0
  3  4  1  0
  2  3  1  0
  1  2  2  0
M  END