hexane
  SciTegic01131010503D

  6  5  0  0  0  0            999 V2000
    0.3358    0.0607   -1.2028 C   0  0  0  0  0  0  0  0  0  1  0  0
    1.6038    0.0574   -0.2803 C   0  0  0  0  0  0  0  0  0  2  0  0
    1.4950   -0.5869    1.1753 C   0  0  0  0  0  0  0  0  0  3  0  0
    0.5277    0.0674    2.2218 C   0  0  0  0  0  0  0  0  0  4  0  0
   -0.9306   -0.4377    2.0869 C   0  0  0  0  0  0  0  0  0  5  0  0
   -0.5961    1.2691   -0.9352 C   0  0  0  0  0  0  0  0  0  6  0  0
  1  6  1  0
  4  5  1  0
  3  4  1  0
  2  3  1  0
  1  2  1  0
M  END