ethene, (2-chloroethoxy)-
  SciTegic01131010503D

  6  5  0  0  0  0            999 V2000
    1.3157   -0.4765   -0.1440 O   0  0  0  0  0  0  0  0  0  1  0  0
    0.4341    0.1101   -1.0826 C   0  0  0  0  0  0  0  0  0  2  0  0
   -0.1657    1.2809   -0.8585 C   0  0  0  0  0  0  0  0  0  3  0  0
    1.4377    0.2979    1.0685 C   0  0  0  0  0  0  0  0  0  4  0  0
    0.6471   -0.3659    2.2320 C   0  0  0  0  0  0  0  0  0  5  0  0
   -1.0753   -0.4836    1.8471 Cl  0  0  0  0  0  0  0  0  0  6  0  0
  5  6  1  0
  4  5  1  0
  1  4  1  0
  2  3  2  0
  1  2  1  0
M  END