cyclohexane
  SciTegic01131010503D

  6  6  0  0  0  0            999 V2000
   -0.2737    1.2758    1.1620 C   0  0  0  0  0  0  0  0  0  1  0  0
   -0.2054    2.7800    0.9116 C   0  0  0  0  0  0  0  0  0  2  0  0
    1.1551    3.1009    0.2147 C   0  0  0  0  0  0  0  0  0  3  0  0
    1.5885    1.9371   -0.7324 C   0  0  0  0  0  0  0  0  0  4  0  0
    0.3321    1.3194   -1.3405 C   0  0  0  0  0  0  0  0  0  5  0  0
   -0.4343    0.5553   -0.2144 C   0  0  0  0  0  0  0  0  0  6  0  0
  6  5  1  0
  1  6  1  0
  4  5  1  0
  3  4  1  0
  2  3  1  0
  1  2  1  0
M  END