cyclohexene
  SciTegic01131010503D

  6  6  0  0  0  0            999 V2000
   -0.2260    0.0831    0.3696 C   0  0  0  0  0  0  0  0  0  1  0  0
    0.7388    0.6148    1.1290 C   0  0  0  0  0  0  0  0  0  2  0  0
    1.3577    1.9656    0.8354 C   0  0  0  0  0  0  0  0  0  3  0  0
    0.4868    2.7810   -0.1379 C   0  0  0  0  0  0  0  0  0  4  0  0
    0.1727    1.8971   -1.3366 C   0  0  0  0  0  0  0  0  0  5  0  0
   -0.7696    0.7754   -0.8629 C   0  0  0  0  0  0  0  0  0  6  0  0
  6  5  1  0
  1  6  1  0
  4  5  1  0
  3  4  1  0
  2  3  1  0
  1  2  2  0
M  END