pyridine
  SciTegic01131010503D

  6  6  0  0  0  0            999 V2000
    0.8797    0.8000    1.0913 N   0  0  0  0  0  0  0  0  0  1  0  0
    0.7408    2.1222    1.0907 C   0  0  0  0  0  0  0  0  0  2  0  0
   -0.2335    2.7321    0.3085 C   0  0  0  0  0  0  0  0  0  3  0  0
   -1.0644    1.9438   -0.4760 C   0  0  0  0  0  0  0  0  0  4  0  0
   -0.8938    0.5662   -0.4531 C   0  0  0  0  0  0  0  0  0  5  0  0
    0.0995    0.0185    0.3510 C   0  0  0  0  0  0  0  0  0  6  0  0
  6  5  4  0
  1  6  4  0
  4  5  4  0
  3  4  4  0
  2  3  4  0
  1  2  4  0
M  END