1-hexanol
  SciTegic01131010503D

  7  6  0  0  0  0            999 V2000
    0.9588    1.8437   -0.1193 O   0  0  0  0  0  0  0  0  0  1  0  0
    1.9408    1.6331    0.8991 C   0  0  0  0  0  0  0  0  0  2  0  0
    1.9009    0.1753    1.4432 C   0  0  0  0  0  0  0  0  0  3  0  0
    0.5567   -0.1536    2.1767 C   0  0  0  0  0  0  0  0  0  4  0  0
   -0.7484   -0.1954    1.2900 C   0  0  0  0  0  0  0  0  0  5  0  0
   -0.9001   -1.4642    0.3686 C   0  0  0  0  0  0  0  0  0  6  0  0
    0.0691   -1.5072   -0.8376 C   0  0  0  0  0  0  0  0  0  7  0  0
  6  7  1  0
  5  6  1  0
  4  5  1  0
  3  4  1  0
  2  3  1  0
  1  2  1  0
M  END