ethanol, 2,2'-iminobis-
  SciTegic01131010503D

  7  6  0  0  0  0            999 V2000
    1.7827   -1.7638    0.1600 O   0  0  0  0  0  0  0  0  0  1  0  0
    2.5296   -0.8147    0.9303 C   0  0  0  0  0  0  0  0  0  2  0  0
    1.6616   -0.1257    2.0299 C   0  0  0  0  0  0  0  0  0  3  0  0
    0.5795    0.7293    1.4681 N   0  0  0  0  0  0  0  0  0  4  0  0
   -0.5185   -0.0669    0.8910 C   0  0  0  0  0  0  0  0  0  5  0  0
   -1.5897    0.8786    0.3212 C   0  0  0  0  0  0  0  0  0  6  0  0
   -1.0059    1.7001   -0.6926 O   0  0  0  0  0  0  0  0  0  7  0  0
  6  7  1  0
  5  6  1  0
  4  5  1  0
  3  4  1  0
  2  3  1  0
  1  2  1  0
M  END