ethane, 1,1'-oxybis 2-chloro-
  SciTegic01131010503D

  7  6  0  0  0  0            999 V2000
   -0.4091    0.1176    0.1097 O   0  0  0  0  0  0  0  0  0  1  0  0
    0.8546   -0.5573    0.0963 C   0  0  0  0  0  0  0  0  0  2  0  0
    0.9042   -1.5702    1.2528 C   0  0  0  0  0  0  0  0  0  3  0  0
    0.7006   -0.7172    2.7862 Cl  0  0  0  0  0  0  0  0  0  4  0  0
   -0.5262    1.1054   -0.9475 C   0  0  0  0  0  0  0  0  0  5  0  0
    0.2424    2.4383   -0.6530 C   0  0  0  0  0  0  0  0  0  6  0  0
    2.0082    2.2588   -0.6475 Cl  0  0  0  0  0  0  0  0  0  7  0  0
  6  7  1  0
  5  6  1  0
  1  5  1  0
  3  4  1  0
  2  3  1  0
  1  2  1  0
M  END