1-octanol
  SciTegic01131010503D

  9  8  0  0  0  0            999 V2000
   -1.1540    1.5540   -0.4567 O   0  0  0  0  0  0  0  0  0  1  0  0
   -1.7111    1.7717    0.8427 C   0  0  0  0  0  0  0  0  0  2  0  0
   -1.1016    0.8039    1.8983 C   0  0  0  0  0  0  0  0  0  3  0  0
   -1.4549   -0.6950    1.6117 C   0  0  0  0  0  0  0  0  0  4  0  0
   -0.8370   -1.3393    0.3098 C   0  0  0  0  0  0  0  0  0  5  0  0
    0.7001   -1.6716    0.3846 C   0  0  0  0  0  0  0  0  0  6  0  0
    1.6271   -0.4339    0.3586 C   0  0  0  0  0  0  0  0  0  7  0  0
    3.0937   -0.8885    0.4414 C   0  0  0  0  0  0  0  0  0  8  0  0
    4.0129    0.3456    0.4172 C   0  0  0  0  0  0  0  0  0  9  0  0
  8  9  1  0
  7  8  1  0
  6  7  1  0
  5  6  1  0
  4  5  1  0
  3  4  1  0
  2  3  1  0
  1  2  1  0
M  END