ethane, 1,1'- methylenebis(oxy) bis 2-chloro-
  SciTegic01131010503D

  9  8  0  0  0  0            999 V2000
   -0.9095    1.9098   -0.1951 O   0  0  0  0  0  0  0  0  0  1  0  0
   -1.2281    0.8990    0.7757 C   0  0  0  0  0  0  0  0  0  2  0  0
   -0.6501    1.2811    2.1561 C   0  0  0  0  0  0  0  0  0  3  0  0
   -1.0487    0.0227    3.3299 Cl  0  0  0  0  0  0  0  0  0  4  0  0
    0.5115    2.0056   -0.3677 C   0  0  0  0  0  0  0  0  0  5  0  0
    1.0233    0.7519   -0.8259 O   0  0  0  0  0  0  0  0  0  6  0  0
    2.4396    0.8464   -0.9956 C   0  0  0  0  0  0  0  0  0  7  0  0
    2.9842   -0.5107   -1.4717 C   0  0  0  0  0  0  0  0  0  8  0  0
    2.6025   -1.7475   -0.2695 Cl  0  0  0  0  0  0  0  0  0  9  0  0
  8  9  1  0
  7  8  1  0
  6  7  1  0
  5  6  1  0
  1  5  1  0
  3  4  1  0
  2  3  1  0
  1  2  1  0
M  END