propoxur
  SciTegic01131010503D

 15 15  0  0  0  0            999 V2000
    0.7139    5.1247    1.2763 C   0  0  0  0  0  0  0  0  0  1  0  0
    0.6838    3.7636    0.8219 N   0  0  0  0  0  0  0  0  0  2  0  0
   -0.4687    2.9881    1.0080 C   0  0  0  0  0  0  0  0  0  3  0  0
   -1.4349    3.5175    1.5680 O   0  0  0  0  0  0  0  0  0  4  0  0
   -0.6066    1.6142    0.5915 O   0  0  0  0  0  0  0  0  0  5  0  0
    0.4622    0.9185   -0.0656 C   0  0  0  0  0  0  0  0  0  6  0  0
    1.6705    1.5642   -0.3181 C   0  0  0  0  0  0  0  0  0  7  0  0
    2.7288    0.9285   -0.9506 C   0  0  0  0  0  0  0  0  0  8  0  0
    2.5868   -0.3905   -1.3466 C   0  0  0  0  0  0  0  0  0  9  0  0
    1.3896   -1.0475   -1.1023 C   0  0  0  0  0  0  0  0  0 10  0  0
    0.3179   -0.4232   -0.4685 C   0  0  0  0  0  0  0  0  0 11  0  0
   -0.8563   -1.3002   -0.3085 O   0  0  0  0  0  0  0  0  0 12  0  0
   -2.1239   -0.9100    0.3219 C   0  0  0  0  0  0  0  0  0 13  0  0
   -2.9432    0.1486   -0.4610 C   0  0  0  0  0  0  0  0  0 14  0  0
   -2.0385   -0.6417    1.8470 C   0  0  0  0  0  0  0  0  0 15  0  0
 13 15  1  0
 13 14  1  0
 12 13  1  0
 11 12  1  0
 11  6  4  0
 10 11  4  0
  9 10  4  0
  8  9  4  0
  7  8  4  0
  6  7  4  0
  5  6  1  0
  3  5  1  0
  3  4  2  0
  2  3  1  0
  1  2  1  0
M  END