methane, oxybis-
  SciTegic01131010503D

  3  2  0  0  0  0            999 V2000
   -0.0950   -0.1325    0.0002 O   0  0  0  0  0  0  0  0  0  1  0  0
    1.3350   -0.1352    0.0004 C   0  0  0  0  0  0  0  0  0  2  0  0
   -0.5697    1.2164    0.0001 C   0  0  0  0  0  0  0  0  0  3  0  0
  1  3  1  0
  1  2  1  0
M  END