benzene, hexachloro-
  SciTegic01131010503D

 12 12  0  0  0  0            999 V2000
    0.9918    0.5528    0.7020 C   0  0  0  0  0  0  0  0  0  1  0  0
    0.8655    1.9112    0.9691 C   0  0  0  0  0  0  0  0  0  2  0  0
   -0.2542    2.6055    0.5259 C   0  0  0  0  0  0  0  0  0  3  0  0
   -1.2477    1.9415   -0.1845 C   0  0  0  0  0  0  0  0  0  4  0  0
   -1.1214    0.5832   -0.4516 C   0  0  0  0  0  0  0  0  0  5  0  0
   -2.3557   -0.2418   -1.3342 Cl  0  0  0  0  0  0  0  0  0  6  0  0
   -2.6389    2.8043   -0.7352 Cl  0  0  0  0  0  0  0  0  0  7  0  0
   -0.4112    4.2933    0.8577 Cl  0  0  0  0  0  0  0  0  0  8  0  0
    2.0998    2.7362    1.8517 Cl  0  0  0  0  0  0  0  0  0  9  0  0
   -0.0016   -0.1111   -0.0083 C   0  0  0  0  0  0  0  0  0 10  0  0
    0.1553   -1.7989   -0.3402 Cl  0  0  0  0  0  0  0  0  0 11  0  0
    2.3831   -0.3099    1.2528 Cl  0  0  0  0  0  0  0  0  0 12  0  0
  1 12  1  0
 10 11  1  0
 10  5  4  0
  1 10  4  0
  2  9  1  0
  3  8  1  0
  4  7  1  0
  5  6  1  0
  4  5  4  0
  3  4  4  0
  2  3  4  0
  1  2  4  0
M  END