benzophenone
  SciTegic01131010503D

 14 15  0  0  0  0            999 V2000
    1.2314   -1.9358    0.5632 O   0  0  0  0  0  0  0  0  0  1  0  0
    1.6347   -0.7790    0.4012 C   0  0  0  0  0  0  0  0  0  2  0  0
    3.1292   -0.5833    0.3248 C   0  0  0  0  0  0  0  0  0  3  0  0
    3.9295   -1.7152    0.4422 C   0  0  0  0  0  0  0  0  0  4  0  0
    5.3149   -1.6162    0.3818 C   0  0  0  0  0  0  0  0  0  5  0  0
    5.9162   -0.3767    0.2025 C   0  0  0  0  0  0  0  0  0  6  0  0
    5.1267    0.7603    0.0840 C   0  0  0  0  0  0  0  0  0  7  0  0
    3.7420    0.6545    0.1452 C   0  0  0  0  0  0  0  0  0  8  0  0
    0.5847    0.3002    0.2992 C   0  0  0  0  0  0  0  0  0  9  0  0
    0.8741    1.6503    0.1165 C   0  0  0  0  0  0  0  0  0 10  0  0
   -0.1458    2.5911    0.0311 C   0  0  0  0  0  0  0  0  0 11  0  0
   -1.4719    2.1886    0.1282 C   0  0  0  0  0  0  0  0  0 12  0  0
   -1.7714    0.8443    0.3106 C   0  0  0  0  0  0  0  0  0 13  0  0
   -0.7468   -0.0915    0.3951 C   0  0  0  0  0  0  0  0  0 14  0  0
 14 13  4  0
  9 14  4  0
 12 13  4  0
 11 12  4  0
 10 11  4  0
  9 10  4  0
  2  9  1  0
  8  7  4  0
  3  8  4  0
  6  7  4  0
  5  6  4  0
  4  5  4  0
  3  4  4  0
  2  3  1  0
  1  2  2  0
M  END