anthracene
  SciTegic01131010503D

 14 16  0  0  0  0            999 V2000
    0.4679    0.5102   -0.2128 C   0  0  0  0  0  0  0  0  0  1  0  0
    0.2845    0.0226   -1.5025 C   0  0  0  0  0  0  0  0  0  2  0  0
    1.3514   -0.5448   -2.1895 C   0  0  0  0  0  0  0  0  0  3  0  0
    2.6018   -0.6246   -1.5871 C   0  0  0  0  0  0  0  0  0  4  0  0
    2.7852   -0.1372   -0.2979 C   0  0  0  0  0  0  0  0  0  5  0  0
   -0.9655    0.1023   -2.1050 C   0  0  0  0  0  0  0  0  0  6  0  0
   -2.0320    0.6697   -1.4177 C   0  0  0  0  0  0  0  0  0  7  0  0
   -1.8485    1.1573   -0.1280 C   0  0  0  0  0  0  0  0  0  8  0  0
   -2.9154    1.7247    0.5590 C   0  0  0  0  0  0  0  0  0  9  0  0
   -4.1659    1.8045   -0.0434 C   0  0  0  0  0  0  0  0  0 10  0  0
   -4.3492    1.3171   -1.3326 C   0  0  0  0  0  0  0  0  0 11  0  0
   -3.2822    0.7496   -2.0199 C   0  0  0  0  0  0  0  0  0 12  0  0
    1.7182    0.4303    0.3894 C   0  0  0  0  0  0  0  0  0 13  0  0
   -0.5986    1.0776    0.4745 C   0  0  0  0  0  0  0  0  0 14  0  0
 14  8  4  0
  1 14  4  0
 13  5  4  0
  1 13  4  0
 12 11  4  0
  7 12  4  0
 10 11  4  0
  9 10  4  0
  8  9  4  0
  7  8  4  0
  6  7  4  0
  2  6  4  0
  4  5  4  0
  3  4  4  0
  2  3  4  0
  1  2  4  0
M  END