1,2-benzenediol
  SciTegic01131010503D

  8  8  0  0  0  0            999 V2000
    1.2458   -0.0849    1.5585 O   0  0  0  0  0  0  0  0  0  1  0  0
    0.4128    0.6292    0.7041 C   0  0  0  0  0  0  0  0  0  2  0  0
    0.1503    1.9718    0.9518 C   0  0  0  0  0  0  0  0  0  3  0  0
    0.7208    2.5994    2.0538 O   0  0  0  0  0  0  0  0  0  4  0  0
   -0.6824    2.6866    0.0982 C   0  0  0  0  0  0  0  0  0  5  0  0
   -1.2525    2.0583   -1.0034 C   0  0  0  0  0  0  0  0  0  6  0  0
   -0.9899    0.7155   -1.2511 C   0  0  0  0  0  0  0  0  0  7  0  0
   -0.1572    0.0008   -0.3974 C   0  0  0  0  0  0  0  0  0  8  0  0
  8  7  4  0
  2  8  4  0
  6  7  4  0
  5  6  4  0
  3  5  4  0
  3  4  1  0
  2  3  4  0
  1  2  1  0
M  END