benzene, 1-methyl-2,4-dinitro-
  SciTegic01131010503D

 13 13  0  0  0  0            999 V2000
    2.2016   -0.8053    0.0627 N   0  0  0  0  0  0  0  0  0  1  0  0
    3.0974   -0.5964    0.7949 O   0  0  0  0  0  0  0  0  0  2  0  0
    1.7305   -1.4557   -0.7960 O   0  0  0  0  0  0  0  0  0  3  0  0
    1.2521    0.1811    0.3453 C   0  0  0  0  0  0  0  0  0  4  0  0
    1.5009    1.1275    1.3272 C   0  0  0  0  0  0  0  0  0  5  0  0
    0.5473    2.0997    1.5946 C   0  0  0  0  0  0  0  0  0  6  0  0
   -0.6563    2.1453    0.8969 C   0  0  0  0  0  0  0  0  0  7  0  0
   -0.9136    1.1858   -0.1017 C   0  0  0  0  0  0  0  0  0  8  0  0
   -2.1158    1.0860   -0.9260 N   0  0  0  0  0  0  0  0  0  9  0  0
   -2.8769    1.9311   -0.6519 O   0  0  0  0  0  0  0  0  0 10  0  0
   -1.9113    0.1560   -1.6157 O   0  0  0  0  0  0  0  0  0 11  0  0
   -1.6072    3.2628    1.2934 C   0  0  0  0  0  0  0  0  0 12  0  0
    0.0547    0.2179   -0.3564 C   0  0  0  0  0  0  0  0  0 13  0  0
 13  8  4  0
  4 13  4  0
  7 12  1  0
  9 11  2  0
  9 10  2  0
  8  9  1  0
  7  8  4  0
  6  7  4  0
  5  6  4  0
  4  5  4  0
  1  4  1  0
  1  3  2  0
  1  2  2  0
M  END