benzenamine, n,n-dimethyl-
  SciTegic01131010503D

  9  9  0  0  0  0            999 V2000
    1.5497   -0.7479    0.4940 N   0  0  0  0  0  0  0  0  0  1  0  0
    0.6345    0.3058    0.3375 C   0  0  0  0  0  0  0  0  0  2  0  0
    0.9509    1.5787    0.8007 C   0  0  0  0  0  0  0  0  0  3  0  0
    0.0451    2.6220    0.6459 C   0  0  0  0  0  0  0  0  0  4  0  0
   -1.1789    2.3938    0.0274 C   0  0  0  0  0  0  0  0  0  5  0  0
   -1.4967    1.1223   -0.4362 C   0  0  0  0  0  0  0  0  0  6  0  0
   -0.5905    0.0793   -0.2811 C   0  0  0  0  0  0  0  0  0  7  0  0
    1.2244   -2.0633    0.0160 C   0  0  0  0  0  0  0  0  0  8  0  0
    2.8156   -0.5156    1.1327 C   0  0  0  0  0  0  0  0  0  9  0  0
  1  9  1  0
  1  8  1  0
  7  6  4  0
  2  7  4  0
  5  6  4  0
  4  5  4  0
  3  4  4  0
  2  3  4  0
  1  2  1  0
M  END