malathion
  SciTegic01131010503D

 19 18  0  0  0  0            999 V2000
    5.7810   -0.6015    1.3805 C   0  0  0  0  0  0  0  0  0  1  0  0
    5.3516   -1.0434   -0.0407 C   0  0  0  0  0  0  0  0  0  2  0  0
    3.9656   -0.7263   -0.2754 O   0  0  0  0  0  0  0  0  0  3  0  0
    3.0960   -1.5815    0.4266 C   0  0  0  0  0  0  0  0  0  4  0  0
    3.5362   -2.5107    1.1145 O   0  0  0  0  0  0  0  0  0  5  0  0
    1.6095   -1.3891    0.3157 C   0  0  0  0  0  0  0  0  0  6  0  0
    1.2958   -0.1468   -0.5414 C   0  0  0  0  0  0  0  0  0  7  0  0
    2.0382    1.4296    0.0153 S   0  0  0  0  0  0  0  0  0  8  0  0
    1.2179    2.3084    1.5715 P   0  0  0  0  0  0  0  0  0  9  0  0
    2.0005    3.8196    1.7255 S   0  0  0  0  0  0  0  0  0 10  0  0
    1.4167    1.5487    2.9448 O   0  0  0  0  0  0  0  0  0 11  0  0
    0.6208    0.3628    3.0795 C   0  0  0  0  0  0  0  0  0 12  0  0
   -0.2923    2.5802    1.2856 O   0  0  0  0  0  0  0  0  0 13  0  0
   -0.8433    3.4739    2.2699 C   0  0  0  0  0  0  0  0  0 14  0  0
   -0.1733    0.0141   -0.7802 C   0  0  0  0  0  0  0  0  0 15  0  0
   -0.6236    1.1315   -1.0612 O   0  0  0  0  0  0  0  0  0 16  0  0
   -1.0152   -1.1082   -0.6943 O   0  0  0  0  0  0  0  0  0 17  0  0
   -2.3972   -0.7695   -0.9226 C   0  0  0  0  0  0  0  0  0 18  0  0
   -2.9839   -0.0097    0.2940 C   0  0  0  0  0  0  0  0  0 19  0  0
 18 19  1  0
 17 18  1  0
 15 17  1  0
 15 16  2  0
  7 15  1  0
 13 14  1  0
  9 13  1  0
 11 12  1  0
  9 11  1  0
  9 10  2  0
  8  9  1  0
  7  8  1  0
  6  7  1  0
  4  6  1  0
  4  5  2  0
  3  4  1  0
  2  3  1  0
  1  2  1  0
M  END