1,3,5-triazine-2,4-diamine, 6-chloro-n,n'-diethyl-
  SciTegic01131010503D

 13 13  0  0  0  0            999 V2000
    0.8690    1.6335   -0.5525 N   0  0  0  0  0  0  0  0  0  1  0  0
    0.0764    2.5739   -0.0563 C   0  0  0  0  0  0  0  0  0  2  0  0
   -0.9014    2.2457    0.7775 N   0  0  0  0  0  0  0  0  0  3  0  0
   -1.0875    0.9766    1.1169 C   0  0  0  0  0  0  0  0  0  4  0  0
   -0.2951    0.0362    0.6198 N   0  0  0  0  0  0  0  0  0  5  0  0
   -2.1190    0.6248    1.9952 N   0  0  0  0  0  0  0  0  0  6  0  0
   -2.9666    1.6338    2.5707 C   0  0  0  0  0  0  0  0  0  7  0  0
   -2.2222    2.3559    3.7130 C   0  0  0  0  0  0  0  0  0  8  0  0
    0.2699    3.9079   -0.4104 N   0  0  0  0  0  0  0  0  0  9  0  0
   -0.5884    4.9222    0.1287 C   0  0  0  0  0  0  0  0  0 10  0  0
   -0.1644    6.2962   -0.4195 C   0  0  0  0  0  0  0  0  0 11  0  0
    0.6828    0.3645   -0.2143 C   0  0  0  0  0  0  0  0  0 12  0  0
    1.7144   -0.8616   -0.8605 Cl  0  0  0  0  0  0  0  0  0 13  0  0
 12 13  1  0
 12  5  4  0
  1 12  4  0
 10 11  1  0
  9 10  1  0
  2  9  1  0
  7  8  1  0
  6  7  1  0
  4  6  1  0
  4  5  4  0
  3  4  4  0
  2  3  4  0
  1  2  4  0
M  END