propanal
  SciTegic01131010503D

  4  3  0  0  0  0            999 V2000
   -0.1943    0.2505   -0.1849 O   0  0  0  0  0  0  0  0  0  1  0  0
    0.7998   -0.4785   -0.0914 C   0  0  0  0  0  0  0  0  0  2  0  0
    1.9386   -0.0857    0.8056 C   0  0  0  0  0  0  0  0  0  3  0  0
    1.6179    1.2573    1.4880 C   0  0  0  0  0  0  0  0  0  4  0  0
  3  4  1  0
  2  3  1  0
  1  2  2  0
M  END