butanal
  SciTegic01131010503D

  5  4  0  0  0  0            999 V2000
   -0.3027   -0.0559   -0.1477 O   0  0  0  0  0  0  0  0  0  1  0  0
    0.7913   -0.6331   -0.1467 C   0  0  0  0  0  0  0  0  0  2  0  0
    1.8953   -0.2100    0.7956 C   0  0  0  0  0  0  0  0  0  3  0  0
    1.5565    1.1238    1.5059 C   0  0  0  0  0  0  0  0  0  4  0  0
    1.4997    2.2833    0.4851 C   0  0  0  0  0  0  0  0  0  5  0  0
  4  5  1  0
  3  4  1  0
  2  3  1  0
  1  2  2  0
M  END