acetic acid, butyl ester
  SciTegic01131010503D

  8  7  0  0  0  0            999 V2000
    1.8237   -0.8642    1.8770 O   0  0  0  0  0  0  0  0  0  1  0  0
    2.1371   -0.5898    0.7128 C   0  0  0  0  0  0  0  0  0  2  0  0
    1.6409    0.5617    0.1081 O   0  0  0  0  0  0  0  0  0  3  0  0
    0.7952    1.2633    1.0252 C   0  0  0  0  0  0  0  0  0  4  0  0
    0.2023    2.5627    0.4020 C   0  0  0  0  0  0  0  0  0  5  0  0
   -0.7882    2.2843   -0.7710 C   0  0  0  0  0  0  0  0  0  6  0  0
   -0.0874    1.6825   -2.0086 C   0  0  0  0  0  0  0  0  0  7  0  0
    3.0533   -1.5001   -0.0510 C   0  0  0  0  0  0  0  0  0  8  0  0
  2  8  1  0
  6  7  1  0
  5  6  1  0
  4  5  1  0
  3  4  1  0
  2  3  1  0
  1  2  2  0
M  END