1,4-dioxane
  SciTegic01131010503D

  6  6  0  0  0  0            999 V2000
    0.1015    1.0664    1.1360 O   0  0  0  0  0  0  0  0  0  1  0  0
    0.1660    2.4888    1.1718 C   0  0  0  0  0  0  0  0  0  2  0  0
    1.2697    2.9372    0.1653 C   0  0  0  0  0  0  0  0  0  3  0  0
    1.1930    2.1614   -1.0653 O   0  0  0  0  0  0  0  0  0  4  0  0
   -0.1377    1.6910   -1.2555 C   0  0  0  0  0  0  0  0  0  5  0  0
   -0.4264    0.6298   -0.1496 C   0  0  0  0  0  0  0  0  0  6  0  0
  6  5  1  0
  1  6  1  0
  4  5  1  0
  3  4  1  0
  2  3  1  0
  1  2  1  0
M  END