1,3-butadiene, 2-chloro-
  SciTegic01131010503D

  5  4  0  0  0  0            999 V2000
   -0.1265    0.2121   -0.0063 C   0  0  0  0  0  0  0  0  0  1  0  0
    1.2642    0.4810    0.3569 C   0  0  0  0  0  0  0  0  0  2  0  0
    2.0332   -0.5033    0.8171 C   0  0  0  0  0  0  0  0  0  3  0  0
   -0.8964    1.1956   -0.4667 C   0  0  0  0  0  0  0  0  0  4  0  0
   -0.7702   -1.3830    0.1623 Cl  0  0  0  0  0  0  0  0  0  5  0  0
  1  5  1  0
  1  4  2  0
  2  3  2  0
  1  2  1  0
M  END