1,2-benzenedicarboxylic acid, dimethyl ester
  SciTegic01131010503D

 14 14  0  0  0  0            999 V2000
    1.3360   -1.3356    0.0141 O   0  0  0  0  0  0  0  0  0  1  0  0
    0.7991   -0.3328    0.4985 C   0  0  0  0  0  0  0  0  0  2  0  0
    0.9001   -0.1324    1.8579 O   0  0  0  0  0  0  0  0  0  3  0  0
    1.6519   -1.1952    2.4524 C   0  0  0  0  0  0  0  0  0  4  0  0
    0.0777    0.5907   -0.4330 C   0  0  0  0  0  0  0  0  0  5  0  0
   -0.5964    1.7780   -0.0907 C   0  0  0  0  0  0  0  0  0  6  0  0
   -1.2144    2.5130   -1.0990 C   0  0  0  0  0  0  0  0  0  7  0  0
   -1.1818    2.1056   -2.4252 C   0  0  0  0  0  0  0  0  0  8  0  0
   -0.5183    0.9369   -2.7621 C   0  0  0  0  0  0  0  0  0  9  0  0
   -0.7353    2.3692    1.2776 C   0  0  0  0  0  0  0  0  0 10  0  0
   -1.3672    3.4263    1.3868 O   0  0  0  0  0  0  0  0  0 11  0  0
   -0.2032    1.8077    2.4177 O   0  0  0  0  0  0  0  0  0 12  0  0
   -0.5168    2.6206    3.5530 C   0  0  0  0  0  0  0  0  0 13  0  0
    0.1022    0.1942   -1.7675 C   0  0  0  0  0  0  0  0  0 14  0  0
 14  9  4  0
  5 14  4  0
 12 13  1  0
 10 12  1  0
 10 11  2  0
  6 10  1  0
  8  9  4  0
  7  8  4  0
  6  7  4  0
  5  6  4  0
  2  5  1  0
  3  4  1  0
  2  3  1  0
  1  2  2  0
M  END