dibenzofuran
  SciTegic01131010503D

 13 15  0  0  0  0            999 V2000
    0.5059   -0.6897    2.0699 O   0  0  0  0  0  0  0  0  0  1  0  0
    1.2796    0.3530    1.9621 C   0  0  0  0  0  0  0  0  0  2  0  0
    1.3622    0.7710    0.6531 C   0  0  0  0  0  0  0  0  0  3  0  0
    0.5724   -0.0997   -0.0566 C   0  0  0  0  0  0  0  0  0  4  0  0
    0.2756   -0.1709   -1.4067 C   0  0  0  0  0  0  0  0  0  5  0  0
   -0.5786   -1.2018   -1.7966 C   0  0  0  0  0  0  0  0  0  6  0  0
   -1.0960   -2.1035   -0.8593 C   0  0  0  0  0  0  0  0  0  7  0  0
   -0.7784   -2.0063    0.4965 C   0  0  0  0  0  0  0  0  0  8  0  0
    2.1165    1.8585    0.2473 C   0  0  0  0  0  0  0  0  0  9  0  0
    2.8113    2.5352    1.2492 C   0  0  0  0  0  0  0  0  0 10  0  0
    2.7367    2.1217    2.5844 C   0  0  0  0  0  0  0  0  0 11  0  0
    1.9672    1.0204    2.9634 C   0  0  0  0  0  0  0  0  0 12  0  0
    0.0711   -0.9792    0.8763 C   0  0  0  0  0  0  0  0  0 13  0  0
 13  8  4  0
 13  4  4  0
  1 13  4  0
 12 11  4  0
  2 12  4  0
 10 11  4  0
  9 10  4  0
  3  9  4  0
  7  8  4  0
  6  7  4  0
  5  6  4  0
  4  5  4  0
  3  4  4  0
  2  3  4  0
  1  2  4  0
M  END