1-naphthalenamine
  SciTegic01131010503D

 11 12  0  0  0  0            999 V2000
    1.2079    0.3157   -0.1113 C   0  0  0  0  0  0  0  0  0  1  0  0
    1.5381    1.4909    0.5551 C   0  0  0  0  0  0  0  0  0  2  0  0
    0.5459    2.2400    1.1764 C   0  0  0  0  0  0  0  0  0  3  0  0
    0.8784    3.4188    1.8446 N   0  0  0  0  0  0  0  0  0  4  0  0
   -0.7769    1.8146    1.1317 C   0  0  0  0  0  0  0  0  0  5  0  0
   -1.1071    0.6398    0.4654 C   0  0  0  0  0  0  0  0  0  6  0  0
    2.8604    1.9171    0.6004 C   0  0  0  0  0  0  0  0  0  7  0  0
    3.8529    1.1677   -0.0210 C   0  0  0  0  0  0  0  0  0  8  0  0
    3.5230   -0.0072   -0.6873 C   0  0  0  0  0  0  0  0  0  9  0  0
    2.2004   -0.4335   -0.7326 C   0  0  0  0  0  0  0  0  0 10  0  0
   -0.1148   -0.1098   -0.1561 C   0  0  0  0  0  0  0  0  0 11  0  0
 11  6  4  0
  1 11  4  0
 10  9  4  0
  1 10  4  0
  8  9  4  0
  7  8  4  0
  2  7  4  0
  5  6  4  0
  3  5  4  0
  3  4  1  0
  2  3  4  0
  1  2  4  0
M  END