thioperoxydicarbonic diamide, tetramethyl-
  SciTegic01131010503D

 12 11  0  0  0  0            999 V2000
    1.5682    3.6984   -0.5782 N   0  0  0  0  0  0  0  0  0  1  0  0
    1.2072    2.3551   -0.6900 C   0  0  0  0  0  0  0  0  0  2  0  0
    0.0252    1.9379   -1.6264 S   0  0  0  0  0  0  0  0  0  3  0  0
    2.0864    1.1250    0.2330 S   0  0  0  0  0  0  0  0  0  4  0  0
    1.2370   -0.7494   -0.1134 S   0  0  0  0  0  0  0  0  0  5  0  0
   -0.4848   -0.8199    0.3642 C   0  0  0  0  0  0  0  0  0  6  0  0
   -0.9571   -0.2573    1.5699 N   0  0  0  0  0  0  0  0  0  7  0  0
   -0.0619    0.3353    2.5203 C   0  0  0  0  0  0  0  0  0  8  0  0
   -2.3566   -0.3288    1.8765 C   0  0  0  0  0  0  0  0  0  9  0  0
   -1.4966   -1.5624   -0.5701 S   0  0  0  0  0  0  0  0  0 10  0  0
    2.6498    4.0802    0.2833 C   0  0  0  0  0  0  0  0  0 11  0  0
    0.8562    4.6975   -1.3220 C   0  0  0  0  0  0  0  0  0 12  0  0
  1 12  1  0
  1 11  1  0
  6 10  2  0
  7  9  1  0
  7  8  1  0
  6  7  1  0
  5  6  1  0
  4  5  1  0
  2  4  1  0
  2  3  2  0
  1  2  1  0
M  END