cyclopentene
  SciTegic01131010503D

  5  5  0  0  0  0            999 V2000
    0.0986   -0.2075    0.0904 C   0  0  0  0  0  0  0  0  0  1  0  0
    1.3085    0.3445    0.1133 C   0  0  0  0  0  0  0  0  0  2  0  0
    1.2199    1.8418    0.1410 C   0  0  0  0  0  0  0  0  0  3  0  0
   -0.1916    2.0534   -0.4448 C   0  0  0  0  0  0  0  0  0  4  0  0
   -0.9747    0.8406    0.0993 C   0  0  0  0  0  0  0  0  0  5  0  0
  5  4  1  0
  1  5  1  0
  3  4  1  0
  2  3  1  0
  1  2  2  0
M  END