hexanoic acid
  SciTegic01131010503D

  8  7  0  0  0  0            999 V2000
    0.7602   -1.4297   -1.3830 O   0  0  0  0  0  0  0  0  0  1  0  0
    1.3135   -0.3908   -1.0060 C   0  0  0  0  0  0  0  0  0  2  0  0
    2.3951   -0.4604   -0.1326 O   0  0  0  0  0  0  0  0  0  3  0  0
    0.8452    0.9446   -1.5359 C   0  0  0  0  0  0  0  0  0  4  0  0
    1.5928    2.1483   -0.8734 C   0  0  0  0  0  0  0  0  0  5  0  0
    1.0286    2.7164    0.5057 C   0  0  0  0  0  0  0  0  0  6  0  0
    1.0326    1.7798    1.7643 C   0  0  0  0  0  0  0  0  0  7  0  0
   -0.1843    0.8219    1.8117 C   0  0  0  0  0  0  0  0  0  8  0  0
  7  8  1  0
  6  7  1  0
  5  6  1  0
  4  5  1  0
  2  4  1  0
  2  3  1  0
  1  2  2  0
M  END