cyclopentane
  SciTegic01131010503D

  5  5  0  0  0  0            999 V2000
    0.4195    0.7533   -0.9641 C   0  0  0  0  0  0  0  0  0  1  0  0
    1.0286    2.1515   -0.9528 C   0  0  0  0  0  0  0  0  0  2  0  0
    1.3736    2.2474    0.5298 C   0  0  0  0  0  0  0  0  0  3  0  0
    0.0410    1.8408    1.1979 C   0  0  0  0  0  0  0  0  0  4  0  0
   -0.6036    0.8408    0.1897 C   0  0  0  0  0  0  0  0  0  5  0  0
  5  4  1  0
  1  5  1  0
  3  4  1  0
  2  3  1  0
  1  2  1  0
M  END