cyclo-octane
  SciTegic01131010503D

  8  8  0  0  0  0            999 V2000
    0.4916    0.9326    1.5902 C   0  0  0  0  0  0  0  0  0  1  0  0
    0.9437   -0.5842    1.3713 C   0  0  0  0  0  0  0  0  0  2  0  0
    0.9911   -1.1284   -0.1303 C   0  0  0  0  0  0  0  0  0  3  0  0
   -0.3227   -0.9680   -1.0253 C   0  0  0  0  0  0  0  0  0  4  0  0
   -0.9554    0.4941   -1.1481 C   0  0  0  0  0  0  0  0  0  5  0  0
   -0.0001    1.6846   -1.6206 C   0  0  0  0  0  0  0  0  0  6  0  0
    1.3598    1.9024   -0.8104 C   0  0  0  0  0  0  0  0  0  7  0  0
    1.2663    2.0684    0.7760 C   0  0  0  0  0  0  0  0  0  8  0  0
  8  1  1  0
  7  8  1  0
  6  7  1  0
  5  6  1  0
  4  5  1  0
  3  4  1  0
  2  3  1  0
  1  2  1  0
M  END