parathion methyl
  SciTegic01131010503D

 16 16  0  0  0  0            999 V2000
    4.3159   -3.0068    2.9173 C   0  0  0  0  0  0  0  0  0  1  0  0
    3.7674   -1.7163    2.5993 O   0  0  0  0  0  0  0  0  0  2  0  0
    4.5896   -1.0492    1.4514 P   0  0  0  0  0  0  0  0  0  3  0  0
    4.6801   -2.1051    0.1076 S   0  0  0  0  0  0  0  0  0  4  0  0
    6.0377   -0.7701    1.9470 O   0  0  0  0  0  0  0  0  0  5  0  0
    6.0192    0.2040    3.0033 C   0  0  0  0  0  0  0  0  0  6  0  0
    3.9539    0.3278    1.0372 O   0  0  0  0  0  0  0  0  0  7  0  0
    2.6083    0.2675    0.5926 C   0  0  0  0  0  0  0  0  0  8  0  0
    1.8984   -0.9284    0.5365 C   0  0  0  0  0  0  0  0  0  9  0  0
    0.5802   -0.9452    0.0964 C   0  0  0  0  0  0  0  0  0 10  0  0
   -0.0379    0.2378   -0.2909 C   0  0  0  0  0  0  0  0  0 11  0  0
    0.6657    1.4352   -0.2364 C   0  0  0  0  0  0  0  0  0 12  0  0
    1.9840    1.4480    0.2044 C   0  0  0  0  0  0  0  0  0 13  0  0
   -1.3641    0.2234   -0.7341 N   0  0  0  0  0  0  0  0  0 14  0  0
   -1.6207    1.3418   -0.9901 O   0  0  0  0  0  0  0  0  0 15  0  0
   -1.7012   -0.9015   -0.6764 O   0  0  0  0  0  0  0  0  0 16  0  0
 14 16  2  0
 14 15  2  0
 11 14  1  0
 13  8  4  0
 12 13  4  0
 11 12  4  0
 10 11  4  0
  9 10  4  0
  8  9  4  0
  7  8  1  0
  3  7  1  0
  5  6  1  0
  3  5  1  0
  3  4  2  0
  2  3  1  0
  1  2  1  0
M  END