aldrin
  SciTegic01131010503D

 18 21  0  0  0  0            999 V2000
    4.5284    0.4168    0.5658 Cl  0  0  0  0  0  0  0  0  0  1  0  0
    3.1072   -0.5590    0.6523 C   0  0  0  0  0  0  0  0  0  2  0  0
    2.4195   -0.8181    1.7444 C   0  0  0  0  0  0  0  0  0  3  0  0
    2.7888   -0.2380    3.3276 Cl  0  0  0  0  0  0  0  0  0  4  0  0
    1.2817   -1.7204    1.3911 C   0  0  1  0  0  0  0  0  0  5  0  0
    0.5449   -2.5021    2.7913 Cl  0  0  0  0  0  0  0  0  0  6  0  0
    0.2255   -1.0554    0.4193 C   0  0  0  0  0  0  0  0  0  7  0  0
   -0.5446    0.2758    0.7415 C   0  0  0  0  0  0  0  0  0  8  0  0
    0.5363    1.3244    0.2729 C   0  0  0  0  0  0  0  0  0  9  0  0
    0.6675    0.7321   -1.1829 C   0  0  0  0  0  0  0  0  0 10  0  0
   -0.7958    0.7191   -1.5101 C   0  0  0  0  0  0  0  0  0 11  0  0
   -1.4899    0.4579   -0.4082 C   0  0  0  0  0  0  0  0  0 12  0  0
    1.0114   -0.7595   -0.8284 C   0  0  0  0  0  0  0  0  0 13  0  0
    2.4700   -1.2730   -0.4956 C   0  0  1  0  0  0  0  0  0 14  0  0
    3.5103   -1.3857   -1.9167 Cl  0  0  0  0  0  0  0  0  0 15  0  0
    2.0383   -2.5711    0.2953 C   0  0  0  0  0  0  0  0  0 16  0  0
    3.4328   -3.4153    0.9735 Cl  0  0  0  0  0  0  0  0  0 17  0  0
    1.0228   -3.6962   -0.6112 Cl  0  0  0  0  0  0  0  0  0 18  0  0
 16 18  1  0
 16 17  1  0
 16  5  1  0
 14 16  1  0
 14 15  1  0
 14  2  1  0
 13 14  1  0
 13  7  1  0
 10 13  1  0
 12  8  1  0
 11 12  2  0
 10 11  1  0
  9 10  1  0
  8  9  1  0
  7  8  1  0
  5  7  1  0
  5  6  1  0
  3  5  1  0
  3  4  1  0
  2  3  2  0
  1  2  1  0
M  END