diuron
  SciTegic01131010503D

 14 14  0  0  0  0            999 V2000
    3.5734    0.4457    0.5292 O   0  0  0  0  0  0  0  0  0  1  0  0
    3.1232   -0.3072   -0.3418 C   0  0  0  0  0  0  0  0  0  2  0  0
    3.9985   -1.1513   -1.0249 N   0  0  0  0  0  0  0  0  0  3  0  0
    5.3985   -1.1370   -0.7127 C   0  0  0  0  0  0  0  0  0  4  0  0
    3.4982   -2.0334   -2.0396 C   0  0  0  0  0  0  0  0  0  5  0  0
    1.7418   -0.3395   -0.6687 N   0  0  0  0  0  0  0  0  0  6  0  0
    0.7451    0.4644   -0.0527 C   0  0  0  0  0  0  0  0  0  7  0  0
    1.0500    1.3768    0.9532 C   0  0  0  0  0  0  0  0  0  8  0  0
    0.0479    2.1464    1.5327 C   0  0  0  0  0  0  0  0  0  9  0  0
   -1.2677    2.0065    1.1076 C   0  0  0  0  0  0  0  0  0 10  0  0
   -1.5781    1.0971    0.1038 C   0  0  0  0  0  0  0  0  0 11  0  0
   -3.2129    0.9216   -0.4263 Cl  0  0  0  0  0  0  0  0  0 12  0  0
   -2.5159    2.9612    1.8255 Cl  0  0  0  0  0  0  0  0  0 13  0  0
   -0.5735    0.3291   -0.4736 C   0  0  0  0  0  0  0  0  0 14  0  0
 14 11  4  0
  7 14  4  0
 10 13  1  0
 11 12  1  0
 10 11  4  0
  9 10  4  0
  8  9  4  0
  7  8  4  0
  6  7  1  0
  2  6  1  0
  3  5  1  0
  3  4  1  0
  2  3  1  0
  1  2  2  0
M  END