linuron
  SciTegic01131010503D

 15 15  0  0  0  0            999 V2000
    3.4094    0.7413    0.4307 O   0  0  0  0  0  0  0  0  0  1  0  0
    3.0132   -0.1012   -0.3836 C   0  0  0  0  0  0  0  0  0  2  0  0
    3.9087   -0.9718   -1.1203 N   0  0  0  0  0  0  0  0  0  3  0  0
    5.2892   -1.0003   -1.0380 O   0  0  0  0  0  0  0  0  0  4  0  0
    5.9342   -0.0837   -0.1398 C   0  0  0  0  0  0  0  0  0  5  0  0
    3.2998   -1.8999   -2.0290 C   0  0  0  0  0  0  0  0  0  6  0  0
    1.6215   -0.2487   -0.6379 N   0  0  0  0  0  0  0  0  0  7  0  0
    0.5895    0.5101   -0.0165 C   0  0  0  0  0  0  0  0  0  8  0  0
    0.8573    1.4796    0.9455 C   0  0  0  0  0  0  0  0  0  9  0  0
   -0.1794    2.1992    1.5286 C   0  0  0  0  0  0  0  0  0 10  0  0
   -1.4935    1.9520    1.1509 C   0  0  0  0  0  0  0  0  0 11  0  0
   -1.7676    0.9853    0.1909 C   0  0  0  0  0  0  0  0  0 12  0  0
   -3.4006    0.6764   -0.2809 Cl  0  0  0  0  0  0  0  0  0 13  0  0
   -2.7848    2.8442    1.8727 Cl  0  0  0  0  0  0  0  0  0 14  0  0
   -0.7284    0.2675   -0.3896 C   0  0  0  0  0  0  0  0  0 15  0  0
 15 12  4  0
  8 15  4  0
 11 14  1  0
 12 13  1  0
 11 12  4  0
 10 11  4  0
  9 10  4  0
  8  9  4  0
  7  8  1  0
  2  7  1  0
  3  6  1  0
  4  5  1  0
  3  4  1  0
  2  3  1  0
  1  2  2  0
M  END