diazinon
  SciTegic01131010503D

 19 19  0  0  0  0            999 V2000
    1.3517   -0.8789    1.2364 O   0  0  0  0  0  0  0  0  0  1  0  0
    0.0669   -0.1325    0.7172 P   0  0  0  0  0  0  0  0  0  2  0  0
    0.0122   -0.2974   -0.8451 O   0  0  0  0  0  0  0  0  0  3  0  0
   -1.2968    0.0052   -1.4075 C   0  0  0  0  0  0  0  0  0  4  0  0
   -1.6612    1.5038   -1.3381 C   0  0  0  0  0  0  0  0  0  5  0  0
    0.0878    1.3856    1.1094 O   0  0  0  0  0  0  0  0  0  6  0  0
    1.2424    2.0083    0.6056 C   0  0  0  0  0  0  0  0  0  7  0  0
    2.1421    1.3028   -0.0652 N   0  0  0  0  0  0  0  0  0  8  0  0
    3.2443    1.8737   -0.5402 C   0  0  0  0  0  0  0  0  0  9  0  0
    3.4754    3.1692   -0.3602 N   0  0  0  0  0  0  0  0  0 10  0  0
    2.6113    3.9298    0.3013 C   0  0  0  0  0  0  0  0  0 11  0  0
    2.8872    5.3912    0.4952 C   0  0  0  0  0  0  0  0  0 12  0  0
    4.2403    1.0380   -1.2834 C   0  0  0  0  0  0  0  0  0 13  0  0
    3.6012   -0.2145   -1.9094 C   0  0  0  0  0  0  0  0  0 14  0  0
    5.0892    1.8685   -2.2625 C   0  0  0  0  0  0  0  0  0 15  0  0
    1.4533    3.3637    0.8137 C   0  0  0  0  0  0  0  0  0 16  0  0
   -1.3092   -0.8946    1.3865 S   0  0  0  0  0  0  0  0  0 17  0  0
    1.3327   -1.1369    2.6676 C   0  0  0  0  0  0  0  0  0 18  0  0
    1.4889    0.1400    3.5185 C   0  0  0  0  0  0  0  0  0 19  0  0
 18 19  1  0
  1 18  1  0
  2 17  2  0
 16 11  4  0
  7 16  4  0
 13 15  1  0
 13 14  1  0
  9 13  1  0
 11 12  1  0
 10 11  4  0
  9 10  4  0
  8  9  4  0
  7  8  4  0
  6  7  1  0
  2  6  1  0
  4  5  1  0
  3  4  1  0
  2  3  1  0
  1  2  1  0
M  END