benzene, 1,2,3-trimethyl-
  SciTegic01131010503D

  9  9  0  0  0  0            999 V2000
    0.2340    0.4701    0.9018 C   0  0  0  0  0  0  0  0  0  1  0  0
    0.3874    1.8495    0.7974 C   0  0  0  0  0  0  0  0  0  2  0  0
   -0.1603    2.5279   -0.2874 C   0  0  0  0  0  0  0  0  0  3  0  0
   -0.8592    1.8280   -1.2646 C   0  0  0  0  0  0  0  0  0  4  0  0
   -1.0119    0.4504   -1.1595 C   0  0  0  0  0  0  0  0  0  5  0  0
   -0.0004    4.0178   -0.4096 C   0  0  0  0  0  0  0  0  0  6  0  0
    1.1449    2.6070    1.8569 C   0  0  0  0  0  0  0  0  0  7  0  0
   -0.4652   -0.2279   -0.0764 C   0  0  0  0  0  0  0  0  0  8  0  0
    0.8217   -0.2722    2.0697 C   0  0  0  0  0  0  0  0  0  9  0  0
  1  9  1  0
  8  5  4  0
  1  8  4  0
  2  7  1  0
  3  6  1  0
  4  5  4  0
  3  4  4  0
  2  3  4  0
  1  2  4  0
M  END