methane, oxybis chloro-
  SciTegic01131010503D

  5  4  0  0  0  0            999 V2000
   -0.1723   -0.1619   -0.3226 O   0  0  0  0  0  0  0  0  0  1  0  0
    1.2367   -0.3572   -0.1714 C   0  0  0  0  0  0  0  0  0  2  0  0
    1.6407   -0.4400    1.5469 Cl  0  0  0  0  0  0  0  0  0  3  0  0
   -0.5578    1.0592    0.3151 C   0  0  0  0  0  0  0  0  0  4  0  0
    0.3047    2.4113   -0.4269 Cl  0  0  0  0  0  0  0  0  0  5  0  0
  4  5  1  0
  1  4  1  0
  2  3  1  0
  1  2  1  0
M  END