2,3-dimethylnaphthalene
  SciTegic01131010503D

 12 13  0  0  0  0            999 V2000
   -2.3846    0.9600    0.6344 C   0  0  0  0  0  0  0  0  0  1  0  0
   -0.9052    0.9056    0.3736 C   0  0  0  0  0  0  0  0  0  2  0  0
   -0.1737    2.0858    0.3060 C   0  0  0  0  0  0  0  0  0  3  0  0
    1.1945    2.0436    0.0653 C   0  0  0  0  0  0  0  0  0  4  0  0
    1.9248    3.2245   -0.0021 C   0  0  0  0  0  0  0  0  0  5  0  0
    3.2934    3.1817   -0.2429 C   0  0  0  0  0  0  0  0  0  6  0  0
    3.9313    1.9585   -0.4163 C   0  0  0  0  0  0  0  0  0  7  0  0
    3.2009    0.7774   -0.3489 C   0  0  0  0  0  0  0  0  0  8  0  0
    1.8325    0.8202   -0.1081 C   0  0  0  0  0  0  0  0  0  9  0  0
    1.1019   -0.3602   -0.0407 C   0  0  0  0  0  0  0  0  0 10  0  0
   -0.2666   -0.3188    0.2001 C   0  0  0  0  0  0  0  0  0 11  0  0
   -1.0495   -1.6002    0.2715 C   0  0  0  0  0  0  0  0  0 12  0  0
 11 12  1  0
 11  2  4  0
 10 11  4  0
  9 10  4  0
  9  4  4  0
  8  9  4  0
  7  8  4  0
  6  7  4  0
  5  6  4  0
  4  5  4  0
  3  4  4  0
  2  3  4  0
  1  2  1  0
M  END