2-hexanone
  SciTegic01131010503D

  7  6  0  0  0  0            999 V2000
   -0.0377   -0.6630   -0.0600 O   0  0  0  0  0  0  0  0  0  1  0  0
    1.1866   -0.8254   -0.1109 C   0  0  0  0  0  0  0  0  0  2  0  0
    2.1075   -0.0125    0.7749 C   0  0  0  0  0  0  0  0  0  3  0  0
    1.3945    1.1536    1.5444 C   0  0  0  0  0  0  0  0  0  4  0  0
    1.1867    2.4669    0.7005 C   0  0  0  0  0  0  0  0  0  5  0  0
    0.1899    2.3328   -0.4722 C   0  0  0  0  0  0  0  0  0  6  0  0
    1.7591   -1.8931   -0.9967 C   0  0  0  0  0  0  0  0  0  7  0  0
  2  7  1  0
  5  6  1  0
  4  5  1  0
  3  4  1  0
  2  3  1  0
  1  2  2  0
M  END