acetic acid, 2-propenyl ester
  SciTegic01131010503D

  7  6  0  0  0  0            999 V2000
    0.4169    2.1816    1.1854 O   0  0  0  0  0  0  0  0  0  1  0  0
    0.9054    2.1694    0.0493 C   0  0  0  0  0  0  0  0  0  2  0  0
    1.3319    0.9598   -0.5310 O   0  0  0  0  0  0  0  0  0  3  0  0
    1.1016   -0.1610    0.3503 C   0  0  0  0  0  0  0  0  0  4  0  0
   -0.3498   -0.6138    0.3498 C   0  0  0  0  0  0  0  0  0  5  0  0
   -1.1942   -0.2514   -0.6168 C   0  0  0  0  0  0  0  0  0  6  0  0
    1.0549    3.4543   -0.7118 C   0  0  0  0  0  0  0  0  0  7  0  0
  2  7  1  0
  5  6  2  0
  4  5  1  0
  3  4  1  0
  2  3  1  0
  1  2  2  0
M  END