formic acid, butyl ester
  SciTegic01131010503D

  7  6  0  0  0  0            999 V2000
    0.6394   -0.2754    2.8812 O   0  0  0  0  0  0  0  0  0  1  0  0
    1.1813   -0.7825    1.8922 C   0  0  0  0  0  0  0  0  0  2  0  0
    1.4409   -0.0097    0.7626 O   0  0  0  0  0  0  0  0  0  3  0  0
    0.9942    1.3331    0.9824 C   0  0  0  0  0  0  0  0  0  4  0  0
    1.2546    2.2507   -0.2504 C   0  0  0  0  0  0  0  0  0  5  0  0
    0.4099    1.8542   -1.5009 C   0  0  0  0  0  0  0  0  0  6  0  0
    0.8237    0.4863   -2.0860 C   0  0  0  0  0  0  0  0  0  7  0  0
  6  7  1  0
  5  6  1  0
  4  5  1  0
  3  4  1  0
  2  3  1  0
  1  2  2  0
M  END