3-butenoic acid
  SciTegic01131010503D

  6  5  0  0  0  0            999 V2000
    3.0182    1.2870   -0.0088 O   0  0  0  0  0  0  0  0  0  1  0  0
    1.6343    1.1455    0.0020 C   0  0  0  0  0  0  0  0  0  2  0  0
    0.9325    2.1628    0.0142 O   0  0  0  0  0  0  0  0  0  3  0  0
    1.0377   -0.2653    0.0027 C   0  0  0  0  0  0  0  0  0  4  0  0
   -0.4923   -0.3699    0.0063 C   0  0  0  0  0  0  0  0  0  5  0  0
   -1.3118    0.6804   -0.0160 C   0  0  0  0  0  0  0  0  0  6  0  0
  5  6  2  0
  4  5  1  0
  2  4  1  0
  2  3  2  0
  1  2  1  0
M  END