benzene, 1,2,3,4-tetrachloro-
  SciTegic01131010503D

 10 10  0  0  0  0            999 V2000
    1.0851    0.4616    0.8055 C   0  0  0  0  0  0  0  0  0  1  0  0
    0.8058    1.8234    0.8023 C   0  0  0  0  0  0  0  0  0  2  0  0
   -0.3726    2.2898    0.2312 C   0  0  0  0  0  0  0  0  0  3  0  0
   -1.2718    1.3944   -0.3367 C   0  0  0  0  0  0  0  0  0  4  0  0
   -0.9926    0.0324   -0.3335 C   0  0  0  0  0  0  0  0  0  5  0  0
   -2.7359    1.9751   -1.0462 Cl  0  0  0  0  0  0  0  0  0  6  0  0
   -0.7197    3.9819    0.2271 Cl  0  0  0  0  0  0  0  0  0  7  0  0
    1.9229    2.9360    1.5078 Cl  0  0  0  0  0  0  0  0  0  8  0  0
    0.1861   -0.4341    0.2377 C   0  0  0  0  0  0  0  0  0  9  0  0
    2.5499   -0.1169    1.5155 Cl  0  0  0  0  0  0  0  0  0 10  0  0
  1 10  1  0
  9  5  4  0
  1  9  4  0
  2  8  1  0
  3  7  1  0
  4  6  1  0
  4  5  4  0
  3  4  4  0
  2  3  4  0
  1  2  4  0
M  END