1-hexyne
  SciTegic01131010503D

  6  5  0  0  0  0            999 V2000
    0.1559   -0.8079   -0.3698 C   0  0  0  0  0  0  0  0  0  1  0  0
    1.2735   -1.2485   -0.2633 C   0  0  0  0  0  0  0  0  0  2  0  0
   -1.2042   -0.2720   -0.4999 C   0  0  0  0  0  0  0  0  0  3  0  0
   -1.5008    0.9619    0.4229 C   0  0  0  0  0  0  0  0  0  4  0  0
   -0.6753    2.2495    0.0801 C   0  0  0  0  0  0  0  0  0  5  0  0
    0.8005    2.1709    0.5385 C   0  0  0  0  0  0  0  0  0  6  0  0
  5  6  1  0
  4  5  1  0
  3  4  1  0
  1  3  1  0
  1  2  3  0
M  END