1-ethylnaphthalene
  SciTegic01131010503D

 12 13  0  0  0  0            999 V2000
   -0.0846    0.2540    3.8049 C   0  0  0  0  0  0  0  0  0  1  0  0
    0.3832    1.0114    2.5454 C   0  0  0  0  0  0  0  0  0  2  0  0
    0.1203    0.1888    1.3073 C   0  0  0  0  0  0  0  0  0  3  0  0
   -0.4688   -1.0671    1.4115 C   0  0  0  0  0  0  0  0  0  4  0  0
   -0.7096   -1.8223    0.2694 C   0  0  0  0  0  0  0  0  0  5  0  0
   -0.3616   -1.3225   -0.9799 C   0  0  0  0  0  0  0  0  0  6  0  0
    0.2270   -0.0679   -1.0863 C   0  0  0  0  0  0  0  0  0  7  0  0
    0.5744    0.4305   -2.3366 C   0  0  0  0  0  0  0  0  0  8  0  0
    1.1633    1.6850   -2.4460 C   0  0  0  0  0  0  0  0  0  9  0  0
    1.4047    2.4412   -1.3046 C   0  0  0  0  0  0  0  0  0 10  0  0
    1.0573    1.9429   -0.0542 C   0  0  0  0  0  0  0  0  0 11  0  0
    0.4682    0.6880    0.0564 C   0  0  0  0  0  0  0  0  0 12  0  0
 12  7  4  0
 12  3  4  0
 11 12  4  0
 10 11  4  0
  9 10  4  0
  8  9  4  0
  7  8  4  0
  6  7  4  0
  5  6  4  0
  4  5  4  0
  3  4  4  0
  2  3  1  0
  1  2  1  0
M  END