carbofuran
  SciTegic01131010503D

 16 17  0  0  0  0            999 V2000
    3.3371   -0.1905   -1.8935 O   0  0  0  0  0  0  0  0  0  1  0  0
    2.7249   -0.2882   -0.8243 C   0  0  0  0  0  0  0  0  0  2  0  0
    1.7173    0.7855   -0.6187 O   0  0  0  0  0  0  0  0  0  3  0  0
    0.7396    1.0005    0.4300 C   0  0  0  0  0  0  0  0  0  4  0  0
   -0.0165    2.1610    0.3531 C   0  0  0  0  0  0  0  0  0  5  0  0
    0.0621    3.1216   -0.5941 O   0  0  0  0  0  0  0  0  0  6  0  0
   -1.1375    3.8880   -0.5231 C   0  0  0  0  0  0  0  0  0  7  0  0
   -1.5729    3.7942    0.9891 C   0  0  0  0  0  0  0  0  0  8  0  0
   -2.1675    3.1081   -1.3662 C   0  0  0  0  0  0  0  0  0  9  0  0
   -1.0343    5.3327   -1.0425 C   0  0  0  0  0  0  0  0  0 10  0  0
   -0.9805    2.4721    1.2841 C   0  0  0  0  0  0  0  0  0 11  0  0
   -1.2501    1.6441    2.3608 C   0  0  0  0  0  0  0  0  0 12  0  0
   -0.5136    0.4661    2.4520 C   0  0  0  0  0  0  0  0  0 13  0  0
    0.4631    0.1568    1.5020 C   0  0  0  0  0  0  0  0  0 14  0  0
    3.1434   -1.4365   -0.0145 N   0  0  0  0  0  0  0  0  0 15  0  0
    2.7362   -1.8766    1.2843 C   0  0  0  0  0  0  0  0  0 16  0  0
 15 16  1  0
  2 15  1  0
 14 13  4  0
  4 14  4  0
 12 13  4  0
 11 12  4  0
 11  8  1  0
  5 11  4  0
  7 10  1  0
  7  9  1  0
  7  8  1  0
  6  7  1  0
  5  6  1  0
  4  5  4  0
  3  4  1  0
  2  3  1  0
  1  2  2  0
M  END