trifluralin
  SciTegic01131010503D

 23 23  0  0  0  0            999 V2000
    0.8232    0.9699    4.6736 C   0  0  0  0  0  0  0  0  0  1  0  0
    1.0695    0.6561    3.1887 C   0  0  0  0  0  0  0  0  0  2  0  0
    0.3483   -0.6608    2.8154 C   0  0  0  0  0  0  0  0  0  3  0  0
    0.5365   -1.0518    1.3861 N   0  0  0  0  0  0  0  0  0  4  0  0
   -0.0551   -2.3120    0.8673 C   0  0  0  0  0  0  0  0  0  5  0  0
   -1.2239   -2.8877    1.7268 C   0  0  0  0  0  0  0  0  0  6  0  0
   -2.5307   -2.0648    1.5531 C   0  0  0  0  0  0  0  0  0  7  0  0
    1.4306   -0.3164    0.5158 C   0  0  0  0  0  0  0  0  0  8  0  0
    0.9334    0.7147   -0.3028 C   0  0  0  0  0  0  0  0  0  9  0  0
    1.7921    1.4114   -1.1441 C   0  0  0  0  0  0  0  0  0 10  0  0
    3.1407    1.1047   -1.1930 C   0  0  0  0  0  0  0  0  0 11  0  0
    3.6378    0.0895   -0.3947 C   0  0  0  0  0  0  0  0  0 12  0  0
    2.8030   -0.6255    0.4564 C   0  0  0  0  0  0  0  0  0 13  0  0
    3.4450   -1.6534    1.2290 N   0  0  0  0  0  0  0  0  0 14  0  0
    2.6478   -2.1775    1.9005 O   0  0  0  0  0  0  0  0  0 15  0  0
    4.5741   -1.6029    0.9056 O   0  0  0  0  0  0  0  0  0 16  0  0
    4.0544    1.8634   -2.1025 C   0  0  0  0  0  0  0  0  0 17  0  0
    4.4520    1.0189   -3.1175 F   0  0  0  0  0  0  0  0  0 18  0  0
    5.1948    2.2164   -1.4119 F   0  0  0  0  0  0  0  0  0 19  0  0
    3.4152    2.9656   -2.6314 F   0  0  0  0  0  0  0  0  0 20  0  0
   -0.4385    1.1217   -0.3379 N   0  0  0  0  0  0  0  0  0 21  0  0
   -0.4723    1.9816   -1.1389 O   0  0  0  0  0  0  0  0  0 22  0  0
   -1.0374    0.4750    0.4265 O   0  0  0  0  0  0  0  0  0 23  0  0
 21 23  2  0
 21 22  2  0
  9 21  1  0
 17 20  1  0
 17 19  1  0
 17 18  1  0
 11 17  1  0
 14 16  2  0
 14 15  2  0
 13 14  1  0
 13  8  4  0
 12 13  4  0
 11 12  4  0
 10 11  4  0
  9 10  4  0
  8  9  4  0
  4  8  1  0
  6  7  1  0
  5  6  1  0
  4  5  1  0
  3  4  1  0
  2  3  1  0
  1  2  1  0
M  END