propane, 2-methoxy-2-methyl-
  SciTegic01131010503D

  6  5  0  0  0  0            999 V2000
   -0.3480   -0.0075   -0.2178 O   0  0  0  0  0  0  0  0  0  1  0  0
    1.0864   -0.0496   -0.0639 C   0  0  0  0  0  0  0  0  0  2  0  0
    1.4624    0.0282    1.4319 C   0  0  0  0  0  0  0  0  0  3  0  0
    1.7363    1.1292   -0.8209 C   0  0  0  0  0  0  0  0  0  4  0  0
    1.6149   -1.3732   -0.6465 C   0  0  0  0  0  0  0  0  0  5  0  0
   -0.8885    1.2141    0.3135 C   0  0  0  0  0  0  0  0  0  6  0  0
  1  6  1  0
  2  5  1  0
  2  4  1  0
  2  3  1  0
  1  2  1  0
M  END