2,3,7,8-TCDD
  SciTegic01131010503D

 18 20  0  0  0  0            999 V2000
   -2.7774    0.5741   -1.2412 Cl  0  0  0  0  0  0  0  0  0  1  0  0
   -1.1718    0.6438   -0.6076 C   0  0  0  0  0  0  0  0  0  2  0  0
   -0.3373    1.7037   -0.9434 C   0  0  0  0  0  0  0  0  0  3  0  0
    0.9543    1.7583   -0.4326 C   0  0  0  0  0  0  0  0  0  4  0  0
    1.7711    2.7937   -0.7598 O   0  0  0  0  0  0  0  0  0  5  0  0
    3.0336    2.8488   -0.2605 C   0  0  0  0  0  0  0  0  0  6  0  0
    3.8677    3.9091   -0.5953 C   0  0  0  0  0  0  0  0  0  7  0  0
    5.1591    3.9642   -0.0834 C   0  0  0  0  0  0  0  0  0  8  0  0
    6.1974    5.2811   -0.4981 Cl  0  0  0  0  0  0  0  0  0  9  0  0
    5.6158    2.9598    0.7625 C   0  0  0  0  0  0  0  0  0 10  0  0
    7.2209    3.0304    1.3974 Cl  0  0  0  0  0  0  0  0  0 11  0  0
    4.7817    1.8993    1.0973 C   0  0  0  0  0  0  0  0  0 12  0  0
    3.4905    1.8441    0.5857 C   0  0  0  0  0  0  0  0  0 13  0  0
    2.6739    0.8083    0.9122 O   0  0  0  0  0  0  0  0  0 14  0  0
    1.4112    0.7536    0.4135 C   0  0  0  0  0  0  0  0  0 15  0  0
    0.5767   -0.3060    0.7492 C   0  0  0  0  0  0  0  0  0 16  0  0
   -0.7151   -0.3605    0.2383 C   0  0  0  0  0  0  0  0  0 17  0  0
   -1.7540   -1.6766    0.6543 Cl  0  0  0  0  0  0  0  0  0 18  0  0
 17 18  1  0
 17  2  4  0
 16 17  4  0
 15 16  4  0
 15  4  4  0
 14 15  1  0
 13 14  1  0
 13  6  4  0
 12 13  4  0
 10 12  4  0
 10 11  1  0
  8 10  4  0
  8  9  1  0
  7  8  4  0
  6  7  4  0
  5  6  1  0
  4  5  1  0
  3  4  4  0
  2  3  4  0
  1  2  1  0
M  END