dicamba
  SciTegic01131010503D

 13 13  0  0  0  0            999 V2000
    2.1460    2.2758   -0.9081 C   0  0  0  0  0  0  0  0  0  1  0  0
    2.7486    1.0019   -0.9807 O   0  0  0  0  0  0  0  0  0  2  0  0
    2.1880   -0.2410   -0.4175 C   0  0  0  0  0  0  0  0  0  3  0  0
    3.0655   -1.2888   -0.6873 C   0  0  0  0  0  0  0  0  0  4  0  0
    4.5185   -0.9504   -1.5580 Cl  0  0  0  0  0  0  0  0  0  5  0  0
    2.8179   -2.5881   -0.2851 C   0  0  0  0  0  0  0  0  0  6  0  0
    1.6586   -2.8604    0.4102 C   0  0  0  0  0  0  0  0  0  7  0  0
    0.7608   -1.8436    0.6975 C   0  0  0  0  0  0  0  0  0  8  0  0
   -0.6564   -2.3232    1.5772 Cl  0  0  0  0  0  0  0  0  0  9  0  0
    0.9874   -0.5135    0.3005 C   0  0  0  0  0  0  0  0  0 10  0  0
   -0.1375    0.4890    0.7159 C   0  0  0  0  0  0  0  0  0 11  0  0
   -0.1373    1.8266    0.4403 O   0  0  0  0  0  0  0  0  0 12  0  0
   -1.1193    0.0846    1.3412 O   0  0  0  0  0  0  0  0  0 13  0  0
 11 13  2  0
 11 12  1  0
 10 11  1  0
 10  3  4  0
  8 10  4  0
  8  9  1  0
  7  8  4  0
  6  7  4  0
  4  6  4  0
  4  5  1  0
  3  4  4  0
  2  3  1  0
  1  2  1  0
M  END