decachlorobiphenyl  (PCB 209)
  SciTegic01131010503D

 22 23  0  0  0  0            999 V2000
   -3.3455    3.6315    3.2096 Cl  0  0  0  0  0  0  0  0  0  1  0  0
   -2.2330    2.6266    2.3518 C   0  0  0  0  0  0  0  0  0  2  0  0
   -0.9106    3.0185    2.2048 C   0  0  0  0  0  0  0  0  0  3  0  0
   -0.3790    4.5187    2.8753 Cl  0  0  0  0  0  0  0  0  0  4  0  0
   -0.0122    2.2120    1.5167 C   0  0  0  0  0  0  0  0  0  5  0  0
    1.6190    2.7748    1.3409 Cl  0  0  0  0  0  0  0  0  0  6  0  0
   -0.4307    0.9984    0.9622 C   0  0  0  0  0  0  0  0  0  7  0  0
   -1.7662    0.6133    1.1147 C   0  0  0  0  0  0  0  0  0  8  0  0
   -2.3534   -0.8926    0.4857 Cl  0  0  0  0  0  0  0  0  0  9  0  0
   -2.6580    1.4239    1.8069 C   0  0  0  0  0  0  0  0  0 10  0  0
   -4.3018    0.9284    1.9939 Cl  0  0  0  0  0  0  0  0  0 11  0  0
    0.5436    0.1182    0.2110 C   0  0  0  0  0  0  0  0  0 12  0  0
    0.2728   -0.2864   -1.0997 C   0  0  0  0  0  0  0  0  0 13  0  0
   -1.1622    0.2255   -1.9287 Cl  0  0  0  0  0  0  0  0  0 14  0  0
    1.1710   -1.0937   -1.7872 C   0  0  0  0  0  0  0  0  0 15  0  0
    0.8251   -1.5764   -3.4088 Cl  0  0  0  0  0  0  0  0  0 16  0  0
    2.3460   -1.5099   -1.1786 C   0  0  0  0  0  0  0  0  0 17  0  0
    3.4585   -2.5149   -2.0363 Cl  0  0  0  0  0  0  0  0  0 18  0  0
    2.6234   -1.1154    0.1220 C   0  0  0  0  0  0  0  0  0 19  0  0
    4.0815   -1.6373    0.8861 Cl  0  0  0  0  0  0  0  0  0 20  0  0
    1.7315   -0.3056    0.8148 C   0  0  0  0  0  0  0  0  0 21  0  0
    2.1225    0.1258    2.4486 Cl  0  0  0  0  0  0  0  0  0 22  0  0
 21 22  1  0
 21 12  4  0
 19 21  4  0
 19 20  1  0
 17 19  4  0
 17 18  1  0
 15 17  4  0
 15 16  1  0
 13 15  4  0
 13 14  1  0
 12 13  4  0
  7 12  1  0
 10 11  1  0
 10  2  4  0
  8 10  4  0
  8  9  1  0
  7  8  4  0
  5  7  4  0
  5  6  1  0
  3  5  4  0
  3  4  1  0
  2  3  4  0
  1  2  1  0
M  END