3 chlorobiphenyl  (PCB 3)
  SciTegic01131010503D

 13 14  0  0  0  0            999 V2000
   -1.8400    5.2362    1.7861 Cl  0  0  0  0  0  0  0  0  0  1  0  0
   -0.7620    3.8978    1.9634 C   0  0  0  0  0  0  0  0  0  2  0  0
   -0.0850    3.7044    3.1622 C   0  0  0  0  0  0  0  0  0  3  0  0
    0.7825    2.6273    3.3047 C   0  0  0  0  0  0  0  0  0  4  0  0
    0.9728    1.7438    2.2483 C   0  0  0  0  0  0  0  0  0  5  0  0
    0.2956    1.9374    1.0496 C   0  0  0  0  0  0  0  0  0  6  0  0
   -0.5718    3.0144    0.9070 C   0  0  0  0  0  0  0  0  0  7  0  0
    0.4954    1.0090   -0.0607 C   0  0  0  0  0  0  0  0  0  8  0  0
   -0.1820    1.2030   -1.2593 C   0  0  0  0  0  0  0  0  0  9  0  0
    0.0080    0.3197   -2.3159 C   0  0  0  0  0  0  0  0  0 10  0  0
    0.8755   -0.7576   -2.1738 C   0  0  0  0  0  0  0  0  0 11  0  0
    1.5529   -0.9516   -0.9752 C   0  0  0  0  0  0  0  0  0 12  0  0
    1.3628   -0.0683    0.0814 C   0  0  0  0  0  0  0  0  0 13  0  0
 13  8  4  0
 12 13  4  0
 11 12  4  0
 10 11  4  0
  9 10  4  0
  8  9  4  0
  6  8  1  0
  7  2  4  0
  6  7  4  0
  5  6  4  0
  4  5  4  0
  3  4  4  0
  2  3  4  0
  1  2  1  0
M  END