diallate
  SciTegic01131010503D

 15 14  0  0  0  0            999 V2000
    3.1104    2.6374    1.3459 C   0  0  0  0  0  0  0  0  0  1  0  0
    2.4215    3.5325    0.2882 C   0  0  0  0  0  0  0  0  0  2  0  0
    2.7804    5.0108    0.5747 C   0  0  0  0  0  0  0  0  0  3  0  0
    0.9705    3.3103    0.2817 N   0  0  0  0  0  0  0  0  0  4  0  0
    0.0775    4.4050    0.6797 C   0  0  0  0  0  0  0  0  0  5  0  0
   -0.7622    3.9946    1.9146 C   0  0  0  0  0  0  0  0  0  6  0  0
   -0.8977    4.7606   -0.4713 C   0  0  0  0  0  0  0  0  0  7  0  0
    0.4424    2.0347   -0.1287 C   0  0  0  0  0  0  0  0  0  8  0  0
   -0.7763    1.8221   -0.1379 O   0  0  0  0  0  0  0  0  0  9  0  0
    1.5222    0.7558   -0.7346 S   0  0  0  0  0  0  0  0  0 10  0  0
    0.5508   -0.6955   -1.2171 C   0  0  0  0  0  0  0  0  0 11  0  0
   -0.1054   -1.3238   -0.0155 C   0  0  0  0  0  0  0  0  0 12  0  0
    0.2129   -0.7247    1.5758 Cl  0  0  0  0  0  0  0  0  0 13  0  0
   -0.9291   -2.3563   -0.1789 C   0  0  0  0  0  0  0  0  0 14  0  0
   -1.6805   -3.0863    1.1950 Cl  0  0  0  0  0  0  0  0  0 15  0  0
 14 15  1  0
 12 14  2  0
 12 13  1  0
 11 12  1  0
 10 11  1  0
  8 10  1  0
  8  9  2  0
  4  8  1  0
  5  7  1  0
  5  6  1  0
  4  5  1  0
  2  4  1  0
  2  3  1  0
  1  2  1  0
M  END