triallate
  SciTegic01131010503D

 16 15  0  0  0  0            999 V2000
    3.3564    3.1224    0.6709 C   0  0  0  0  0  0  0  0  0  1  0  0
    2.2990    3.5933   -0.3576 C   0  0  0  0  0  0  0  0  0  2  0  0
    2.4693    5.1161   -0.5780 C   0  0  0  0  0  0  0  0  0  3  0  0
    0.9421    3.2520    0.0931 N   0  0  0  0  0  0  0  0  0  4  0  0
   -0.0065    4.3349    0.3819 C   0  0  0  0  0  0  0  0  0  5  0  0
   -0.4724    4.2702    1.8587 C   0  0  0  0  0  0  0  0  0  6  0  0
   -1.2567    4.2193   -0.5250 C   0  0  0  0  0  0  0  0  0  7  0  0
    0.5601    1.8698    0.2499 C   0  0  0  0  0  0  0  0  0  8  0  0
   -0.5712    1.5659    0.6495 O   0  0  0  0  0  0  0  0  0  9  0  0
    1.6699    0.5543   -0.2129 S   0  0  0  0  0  0  0  0  0 10  0  0
    1.5133   -0.8144    0.9710 C   0  0  0  0  0  0  0  0  0 11  0  0
    0.1351   -1.4615    1.0348 C   0  0  0  0  0  0  0  0  0 12  0  0
   -0.4050   -2.0660    2.5600 Cl  0  0  0  0  0  0  0  0  0 13  0  0
   -0.6733   -1.6044   -0.0228 C   0  0  0  0  0  0  0  0  0 14  0  0
   -2.2062   -2.3673    0.2079 Cl  0  0  0  0  0  0  0  0  0 15  0  0
   -0.2309   -1.0854   -1.6138 Cl  0  0  0  0  0  0  0  0  0 16  0  0
 14 16  1  0
 14 15  1  0
 12 14  2  0
 12 13  1  0
 11 12  1  0
 10 11  1  0
  8 10  1  0
  8  9  2  0
  4  8  1  0
  5  7  1  0
  5  6  1  0
  4  5  1  0
  2  4  1  0
  2  3  1  0
  1  2  1  0
M  END