2-methoxytetrachlorophenol
  SciTegic01131010503D

 13 13  0  0  0  0            999 V2000
   -2.3658    1.6027   -0.0860 C   0  0  0  0  0  0  0  0  0  1  0  0
   -1.8986    0.3795    0.4801 O   0  0  0  0  0  0  0  0  0  2  0  0
   -0.5298   -0.0461    0.2410 C   0  0  0  0  0  0  0  0  0  3  0  0
   -0.1988   -1.2550    0.8477 C   0  0  0  0  0  0  0  0  0  4  0  0
   -1.1592   -1.9245    1.5972 O   0  0  0  0  0  0  0  0  0  5  0  0
    1.0688   -1.8057    0.7204 C   0  0  0  0  0  0  0  0  0  6  0  0
    1.4424   -3.3074    1.4876 Cl  0  0  0  0  0  0  0  0  0  7  0  0
    2.0332   -1.1468   -0.0242 C   0  0  0  0  0  0  0  0  0  8  0  0
    3.6142   -1.8222   -0.1899 Cl  0  0  0  0  0  0  0  0  0  9  0  0
    1.7221    0.0587   -0.6360 C   0  0  0  0  0  0  0  0  0 10  0  0
    2.9281    0.8763   -1.5633 Cl  0  0  0  0  0  0  0  0  0 11  0  0
    0.4543    0.6208   -0.5155 C   0  0  0  0  0  0  0  0  0 12  0  0
    0.2340    2.1394   -1.3483 Cl  0  0  0  0  0  0  0  0  0 13  0  0
 12 13  1  0
 12  3  4  0
 10 12  4  0
 10 11  1  0
  8 10  4  0
  8  9  1  0
  6  8  4  0
  6  7  1  0
  4  6  4  0
  4  5  1  0
  3  4  4  0
  2  3  1  0
  1  2  1  0
M  END