mecoprop
  SciTegic01131010503D

 14 14  0  0  0  0            999 V2000
    2.8975    1.2656   -1.0753 O   0  0  0  0  0  0  0  0  0  1  0  0
    3.3448    0.2050   -0.6237 C   0  0  0  0  0  0  0  0  0  2  0  0
    4.4814   -0.3590   -1.1934 O   0  0  0  0  0  0  0  0  0  3  0  0
    2.6885   -0.4720    0.5745 C   0  0  0  0  0  0  0  0  0  4  0  0
    1.9205    0.4397    1.4077 O   0  0  0  0  0  0  0  0  0  5  0  0
    0.6647    0.8497    0.8730 C   0  0  0  0  0  0  0  0  0  6  0  0
   -0.0945    1.7654    1.5934 C   0  0  0  0  0  0  0  0  0  7  0  0
   -1.3295    2.1866    1.1136 C   0  0  0  0  0  0  0  0  0  8  0  0
   -1.8140    1.6908   -0.0908 C   0  0  0  0  0  0  0  0  0  9  0  0
   -1.0633    0.7717   -0.8135 C   0  0  0  0  0  0  0  0  0 10  0  0
   -3.3485    2.2147   -0.6872 Cl  0  0  0  0  0  0  0  0  0 11  0  0
    0.4228    2.3025    2.8954 C   0  0  0  0  0  0  0  0  0 12  0  0
    0.1709    0.3520   -0.3312 C   0  0  0  0  0  0  0  0  0 13  0  0
    3.7664   -1.2226    1.3761 C   0  0  0  0  0  0  0  0  0 14  0  0
  4 14  1  0
 13 10  4  0
  6 13  4  0
  7 12  1  0
  9 11  1  0
  9 10  4  0
  8  9  4  0
  7  8  4  0
  6  7  4  0
  5  6  1  0
  4  5  1  0
  2  4  1  0
  2  3  1  0
  1  2  2  0
M  END