toxaphene
  SciTegic01131010503D

 18 19  0  0  0  0            999 V2000
    1.6972    0.9845   -1.2734 C   0  0  0  0  0  0  0  0  0  1  0  0
    1.9617    0.6035   -0.0257 C   0  0  0  0  0  0  0  0  0  2  0  0
    3.2059    0.9602    0.7132 C   0  0  0  0  0  0  0  0  0  3  0  0
    2.8067    0.2539    2.1184 C   0  0  2  0  0  0  0  0  0  4  0  0
    2.6481   -1.2735    2.0380 C   0  0  0  0  0  0  0  0  0  5  0  0
    1.5091   -1.5675    1.0479 C   0  0  0  0  0  0  0  0  0  6  0  0
    0.9453   -0.1265    0.8927 C   0  0  1  0  0  0  0  0  0  7  0  0
    1.2428    0.5201    2.3126 C   0  0  0  0  0  0  0  0  0  8  0  0
    0.5205   -0.3509    3.6701 Cl  0  0  0  0  0  0  0  0  0  9  0  0
    0.7271    2.1729    2.4701 Cl  0  0  0  0  0  0  0  0  0 10  0  0
   -0.6993   -0.1417    0.2523 Cl  0  0  0  0  0  0  0  0  0 11  0  0
    0.4777   -2.7264    1.8968 Cl  0  0  0  0  0  0  0  0  0 12  0  0
    4.0152   -2.3937    1.9708 Cl  0  0  0  0  0  0  0  0  0 13  0  0
    3.8941    0.6875    3.4389 Cl  0  0  0  0  0  0  0  0  0 14  0  0
    3.4853    2.5367    0.6260 C   0  0  0  0  0  0  0  0  0 15  0  0
    2.2805    3.7449    1.0444 Cl  0  0  0  0  0  0  0  0  0 16  0  0
    4.5472    0.5172    0.0111 C   0  0  0  0  0  0  0  0  0 17  0  0
    4.6462   -1.1753   -0.4816 Cl  0  0  0  0  0  0  0  0  0 18  0  0
 17 18  1  0
  3 17  1  0
 15 16  1  0
  3 15  1  0
  4 14  1  0
  5 13  1  0
  6 12  1  0
  7 11  1  0
  8 10  1  0
  8  9  1  0
  8  4  1  0
  7  8  1  0
  7  2  1  0
  6  7  1  0
  5  6  1  0
  4  5  1  0
  3  4  1  0
  2  3  1  0
  1  2  2  0
M  END