benomyl
  SciTegic01131010503D

 21 22  0  0  0  0            999 V2000
   -2.1431    0.7445   -1.6635 C   0  0  0  0  0  0  0  0  0  1  0  0
   -2.6201    1.3264   -0.4839 C   0  0  0  0  0  0  0  0  0  2  0  0
   -1.8670    1.3017    0.6903 C   0  0  0  0  0  0  0  0  0  3  0  0
   -0.6313    0.6771    0.6320 C   0  0  0  0  0  0  0  0  0  4  0  0
    0.3246    0.5083    1.6501 N   0  0  0  0  0  0  0  0  0  5  0  0
    1.3124   -0.1269    1.1196 C   0  0  0  0  0  0  0  0  0  6  0  0
    2.4726   -0.5074    1.8026 N   0  0  0  0  0  0  0  0  0  7  0  0
    2.6172   -0.2357    3.1683 C   0  0  0  0  0  0  0  0  0  8  0  0
    1.7194    0.3481    3.7864 O   0  0  0  0  0  0  0  0  0  9  0  0
    3.7730   -0.6354    3.8353 O   0  0  0  0  0  0  0  0  0 10  0  0
    3.6895   -0.2600    5.2140 C   0  0  0  0  0  0  0  0  0 11  0  0
    1.0578   -0.4036   -0.2473 N   0  0  0  0  0  0  0  0  0 12  0  0
    1.9162   -1.0674   -1.1305 C   0  0  0  0  0  0  0  0  0 13  0  0
    1.5836   -1.2648   -2.3042 O   0  0  0  0  0  0  0  0  0 14  0  0
    3.1901   -1.4365   -0.7089 N   0  0  0  0  0  0  0  0  0 15  0  0
    4.0915   -2.0568   -1.6349 C   0  0  0  0  0  0  0  0  0 16  0  0
    5.5483   -1.5275   -1.4780 C   0  0  0  0  0  0  0  0  0 17  0  0
    5.7112   -0.0407   -1.9373 C   0  0  0  0  0  0  0  0  0 18  0  0
    4.9517    0.9561   -1.0336 C   0  0  0  0  0  0  0  0  0 19  0  0
   -0.1673    0.1076   -0.5262 C   0  0  0  0  0  0  0  0  0 20  0  0
   -0.8969    0.1202   -1.7044 C   0  0  0  0  0  0  0  0  0 21  0  0
 21  1  4  0
 20 21  4  0
 20  4  4  0
 12 20  4  0
 18 19  1  0
 17 18  1  0
 16 17  1  0
 15 16  1  0
 13 15  1  0
 13 14  2  0
 12 13  1  0
  6 12  4  0
 10 11  1  0
  8 10  1  0
  8  9  2  0
  7  8  1  0
  6  7  1  0
  5  6  4  0
  4  5  4  0
  3  4  4  0
  2  3  4  0
  1  2  4  0
M  END