2,3,4-trichlorobiphenyl  (PCB 21)
  SciTegic01131010503D

 15 16  0  0  0  0            999 V2000
    3.0414   -0.1338    2.2074 Cl  0  0  0  0  0  0  0  0  0  1  0  0
    1.6432    0.2429    1.2652 C   0  0  0  0  0  0  0  0  0  2  0  0
    0.7485    1.2087    1.7020 C   0  0  0  0  0  0  0  0  0  3  0  0
   -0.3719    1.5032    0.9365 C   0  0  0  0  0  0  0  0  0  4  0  0
   -0.6167    0.8461   -0.2659 C   0  0  0  0  0  0  0  0  0  5  0  0
   -1.8599    1.2504   -1.0041 C   0  0  0  0  0  0  0  0  0  6  0  0
   -2.6622    2.2371   -0.4393 C   0  0  0  0  0  0  0  0  0  7  0  0
   -3.8262    2.6548   -1.0743 C   0  0  0  0  0  0  0  0  0  8  0  0
   -4.1992    2.0861   -2.2858 C   0  0  0  0  0  0  0  0  0  9  0  0
   -2.2417    0.6869   -2.2174 C   0  0  0  0  0  0  0  0  0 10  0  0
   -3.4044    1.1002   -2.8574 C   0  0  0  0  0  0  0  0  0 11  0  0
    1.4117   -0.4207    0.0677 C   0  0  0  0  0  0  0  0  0 12  0  0
    2.5288   -1.6224   -0.4718 Cl  0  0  0  0  0  0  0  0  0 13  0  0
    0.2906   -0.1294   -0.7032 C   0  0  0  0  0  0  0  0  0 14  0  0
    0.1034   -1.0217   -2.1818 Cl  0  0  0  0  0  0  0  0  0 15  0  0
 14 15  1  0
 14  5  4  0
 12 14  4  0
 12 13  1  0
  2 12  4  0
 11  9  4  0
 10 11  4  0
  6 10  4  0
  8  9  4  0
  7  8  4  0
  6  7  4  0
  5  6  1  0
  4  5  4  0
  3  4  4  0
  2  3  4  0
  1  2  1  0
M  END