2,2',3,3',4,5,6-heptachlorobiphenyl  (PCB 173)
  SciTegic01131010503D

 19 20  0  0  0  0            999 V2000
    1.9128    0.4332    2.6303 Cl  0  0  0  0  0  0  0  0  0  1  0  0
    0.6061    1.5660    2.4667 C   0  0  0  0  0  0  0  0  0  2  0  0
    0.0054    1.8469    1.2319 C   0  0  0  0  0  0  0  0  0  3  0  0
   -1.0394    2.7819    1.1985 C   0  0  0  0  0  0  0  0  0  4  0  0
   -1.4528    3.4210    2.3613 C   0  0  0  0  0  0  0  0  0  5  0  0
   -0.8402    3.1437    3.5727 C   0  0  0  0  0  0  0  0  0  6  0  0
    0.1865    2.2147    3.6219 C   0  0  0  0  0  0  0  0  0  7  0  0
    0.9518    1.8615    5.1293 Cl  0  0  0  0  0  0  0  0  0  8  0  0
   -1.3596    3.9430    5.0131 Cl  0  0  0  0  0  0  0  0  0  9  0  0
   -2.7481    4.5615    2.2973 Cl  0  0  0  0  0  0  0  0  0 10  0  0
   -1.9135    3.1581   -0.2503 Cl  0  0  0  0  0  0  0  0  0 11  0  0
    0.4808    1.1190   -0.0274 C   0  0  0  0  0  0  0  0  0 12  0  0
    0.7121    1.7615   -1.2510 C   0  0  0  0  0  0  0  0  0 13  0  0
    1.1403    1.0310   -2.3548 C   0  0  0  0  0  0  0  0  0 14  0  0
    1.3450   -0.3390   -2.2636 C   0  0  0  0  0  0  0  0  0 15  0  0
    1.1295   -0.9831   -1.0546 C   0  0  0  0  0  0  0  0  0 16  0  0
    0.7058   -0.2537    0.0485 C   0  0  0  0  0  0  0  0  0 17  0  0
    1.4328    1.8412   -3.8520 Cl  0  0  0  0  0  0  0  0  0 18  0  0
    0.5411    3.4747   -1.4568 Cl  0  0  0  0  0  0  0  0  0 19  0  0
 13 19  1  0
 14 18  1  0
 17 12  4  0
 16 17  4  0
 15 16  4  0
 14 15  4  0
 13 14  4  0
 12 13  4  0
  3 12  1  0
  4 11  1  0
  5 10  1  0
  6  9  1  0
  7  8  1  0
  7  2  4  0
  6  7  4  0
  5  6  4  0
  4  5  4  0
  3  4  4  0
  2  3  4  0
  1  2  1  0
M  END