1,2,3,4-tetrachlorodibenzo-p-dioxin
  SciTegic01131010503D

 18 20  0  0  0  0            999 V2000
   -2.5768    1.8373   -0.6348 Cl  0  0  0  0  0  0  0  0  0  1  0  0
   -0.9138    1.5875   -0.2408 C   0  0  0  0  0  0  0  0  0  2  0  0
   -0.2098    2.5644    0.4540 C   0  0  0  0  0  0  0  0  0  3  0  0
   -0.9983    4.0277    0.9231 Cl  0  0  0  0  0  0  0  0  0  4  0  0
    1.1286    2.3636    0.7712 C   0  0  0  0  0  0  0  0  0  5  0  0
    2.0039    3.5764    1.6342 Cl  0  0  0  0  0  0  0  0  0  6  0  0
    1.7626    1.1861    0.3935 C   0  0  0  0  0  0  0  0  0  7  0  0
    3.0702    0.9897    0.7033 O   0  0  0  0  0  0  0  0  0  8  0  0
    3.6908   -0.1611    0.3345 C   0  0  0  0  0  0  0  0  0  9  0  0
    5.0292   -0.3615    0.6519 C   0  0  0  0  0  0  0  0  0 10  0  0
    5.6633   -1.5397    0.2740 C   0  0  0  0  0  0  0  0  0 11  0  0
    4.9592   -2.5168   -0.4209 C   0  0  0  0  0  0  0  0  0 12  0  0
    3.6205   -2.3164   -0.7384 C   0  0  0  0  0  0  0  0  0 13  0  0
    2.9865   -1.1384   -0.3605 C   0  0  0  0  0  0  0  0  0 14  0  0
    1.6786   -0.9415   -0.6702 O   0  0  0  0  0  0  0  0  0 15  0  0
    1.0586    0.2091   -0.3013 C   0  0  0  0  0  0  0  0  0 16  0  0
   -0.2795    0.4097   -0.6185 C   0  0  0  0  0  0  0  0  0 17  0  0
   -1.1530   -0.8044   -1.4815 Cl  0  0  0  0  0  0  0  0  0 18  0  0
 17 18  1  0
 17  2  4  0
 16 17  4  0
 16  7  4  0
 15 16  1  0
 14 15  1  0
 14  9  4  0
 13 14  4  0
 12 13  4  0
 11 12  4  0
 10 11  4  0
  9 10  4  0
  8  9  1  0
  7  8  1  0
  5  7  4  0
  5  6  1  0
  3  5  4  0
  3  4  1  0
  2  3  4  0
  1  2  1  0
M  END