2,7-dichlorodibenzo-p-dioxin
  SciTegic01131010503D

 16 18  0  0  0  0            999 V2000
   -3.0047    1.5520   -0.3458 Cl  0  0  0  0  0  0  0  0  0  1  0  0
   -1.2836    1.4957   -0.2059 C   0  0  0  0  0  0  0  0  0  2  0  0
   -0.5536    2.6767   -0.1302 C   0  0  0  0  0  0  0  0  0  3  0  0
    0.8314    2.6322   -0.0176 C   0  0  0  0  0  0  0  0  0  4  0  0
    1.4856    1.4063    0.0193 C   0  0  0  0  0  0  0  0  0  5  0  0
    2.8393    1.3616    0.1293 O   0  0  0  0  0  0  0  0  0  6  0  0
    3.4800    0.1639    0.1656 C   0  0  0  0  0  0  0  0  0  7  0  0
    4.8647    0.1195    0.2783 C   0  0  0  0  0  0  0  0  0  8  0  0
    5.5190   -1.1067    0.3153 C   0  0  0  0  0  0  0  0  0  9  0  0
    7.2401   -1.1629    0.4554 Cl  0  0  0  0  0  0  0  0  0 10  0  0
    4.7890   -2.2876    0.2396 C   0  0  0  0  0  0  0  0  0 11  0  0
    3.4040   -2.2432    0.1269 C   0  0  0  0  0  0  0  0  0 12  0  0
    2.7498   -1.0173    0.0899 C   0  0  0  0  0  0  0  0  0 13  0  0
    1.3962   -0.9725   -0.0203 O   0  0  0  0  0  0  0  0  0 14  0  0
    0.7554    0.2252   -0.0564 C   0  0  0  0  0  0  0  0  0 15  0  0
   -0.6293    0.2696   -0.1690 C   0  0  0  0  0  0  0  0  0 16  0  0
 16  2  4  0
 15 16  4  0
 15  5  4  0
 14 15  1  0
 13 14  1  0
 13  7  4  0
 12 13  4  0
 11 12  4  0
  9 11  4  0
  9 10  1  0
  8  9  4  0
  7  8  4  0
  6  7  1  0
  5  6  1  0
  4  5  4  0
  3  4  4  0
  2  3  4  0
  1  2  1  0
M  END