1,2,3,4,6,7,8-heptchlorodibenzo-p-dioxin
  SciTegic01131010503D

 21 23  0  0  0  0            999 V2000
   -2.1780    2.5145    2.3515 Cl  0  0  0  0  0  0  0  0  0  1  0  0
   -0.8600    1.9659    1.3793 C   0  0  0  0  0  0  0  0  0  2  0  0
   -0.2476    2.8354    0.4840 C   0  0  0  0  0  0  0  0  0  3  0  0
   -0.8050    4.4642    0.3440 Cl  0  0  0  0  0  0  0  0  0  4  0  0
    0.8130    2.3942   -0.2987 C   0  0  0  0  0  0  0  0  0  5  0  0
    1.5742    3.4735   -1.4112 Cl  0  0  0  0  0  0  0  0  0  6  0  0
    1.2610    1.0835   -0.1859 C   0  0  0  0  0  0  0  0  0  7  0  0
    2.2971    0.6518   -0.9507 O   0  0  0  0  0  0  0  0  0  8  0  0
    2.7337   -0.6298   -0.8420 C   0  0  0  0  0  0  0  0  0  9  0  0
    3.7925   -1.0729   -1.6260 C   0  0  0  0  0  0  0  0  0 10  0  0
    4.2376   -2.3852   -1.5135 C   0  0  0  0  0  0  0  0  0 11  0  0
    5.5531   -2.9379   -2.4871 Cl  0  0  0  0  0  0  0  0  0 12  0  0
    3.6242   -3.2536   -0.6177 C   0  0  0  0  0  0  0  0  0 13  0  0
    4.1778   -4.8838   -0.4789 Cl  0  0  0  0  0  0  0  0  0 14  0  0
    2.5654   -2.8101    0.1661 C   0  0  0  0  0  0  0  0  0 15  0  0
    1.8025   -3.8876    1.2792 Cl  0  0  0  0  0  0  0  0  0 16  0  0
    2.1203   -1.4986    0.0539 C   0  0  0  0  0  0  0  0  0 17  0  0
    1.0860   -1.0661    0.8194 O   0  0  0  0  0  0  0  0  0 18  0  0
    0.6485    0.2140    0.7095 C   0  0  0  0  0  0  0  0  0 19  0  0
   -0.4117    0.6550    1.4921 C   0  0  0  0  0  0  0  0  0 20  0  0
   -1.1713   -0.4263    2.6037 Cl  0  0  0  0  0  0  0  0  0 21  0  0
 20 21  1  0
 20  2  4  0
 19 20  4  0
 19  7  4  0
 18 19  1  0
 17 18  1  0
 17  9  4  0
 15 17  4  0
 15 16  1  0
 13 15  4  0
 13 14  1  0
 11 13  4  0
 11 12  1  0
 10 11  4  0
  9 10  4  0
  8  9  1  0
  7  8  1  0
  5  7  4  0
  5  6  1  0
  3  5  4  0
  3  4  1  0
  2  3  4  0
  1  2  1  0
M  END