2,8-dichlorodibenzo-p-dioxin
  SciTegic01131010503D

 16 18  0  0  0  0            999 V2000
   -2.9477    3.3802    1.6359 C   0  0  0  0  0  0  0  0  0  1  0  0
   -1.6188    3.2930    1.6430 C   0  0  0  0  0  0  0  0  0  2  0  0
   -0.9608    2.1147    1.0763 C   0  0  0  0  0  0  0  0  0  3  0  0
   -1.6908    1.1298    0.5534 C   0  0  0  0  0  0  0  0  0  4  0  0
   -3.1511    1.2252    0.5453 C   0  0  0  0  0  0  0  0  0  5  0  0
   -3.7502    2.2972    1.0609 C   0  0  0  0  0  0  0  0  0  6  0  0
   -5.4742    2.4108    1.0519 Cl  0  0  0  0  0  0  0  0  0  7  0  0
   -1.0779    0.0361    0.0274 O   0  0  0  0  0  0  0  0  0  8  0  0
    0.2786   -0.0542    0.0341 C   0  0  0  0  0  0  0  0  0  9  0  0
    1.0086    0.9307    0.5569 C   0  0  0  0  0  0  0  0  0 10  0  0
    0.3957    2.0243    1.0829 O   0  0  0  0  0  0  0  0  0 11  0  0
    2.4692    0.8353    0.5651 C   0  0  0  0  0  0  0  0  0 12  0  0
    3.0683   -0.2366    0.0495 C   0  0  0  0  0  0  0  0  0 13  0  0
    2.2655   -1.3194   -0.5254 C   0  0  0  0  0  0  0  0  0 14  0  0
    0.9364   -1.2322   -0.5325 C   0  0  0  0  0  0  0  0  0 15  0  0
    3.0432   -2.7098   -1.1941 Cl  0  0  0  0  0  0  0  0  0 16  0  0
 14 16  1  0
 15  9  4  0
 14 15  4  0
 13 14  4  0
 12 13  4  0
 10 12  4  0
 11  3  1  0
 10 11  1  0
  9 10  4  0
  8  9  1  0
  4  8  1  0
  6  7  1  0
  6  1  4  0
  5  6  4  0
  4  5  4  0
  3  4  4  0
  2  3  4  0
  1  2  4  0
M  END