2-chlorodibenzo-p-dioxin
  SciTegic01131010503D

 15 17  0  0  0  0            999 V2000
   -2.9146    1.2625    0.7214 Cl  0  0  0  0  0  0  0  0  0  1  0  0
   -1.2079    1.2886    0.4536 C   0  0  0  0  0  0  0  0  0  2  0  0
   -0.5603    2.4957    0.2151 C   0  0  0  0  0  0  0  0  0  3  0  0
    0.8129    2.5174   -0.0005 C   0  0  0  0  0  0  0  0  0  4  0  0
    1.5379    1.3316    0.0224 C   0  0  0  0  0  0  0  0  0  5  0  0
    2.8802    1.3517   -0.1882 O   0  0  0  0  0  0  0  0  0  6  0  0
    3.5900    0.1931   -0.1660 C   0  0  0  0  0  0  0  0  0  7  0  0
    4.9631    0.2149   -0.3817 C   0  0  0  0  0  0  0  0  0  8  0  0
    5.6883   -0.9711   -0.3587 C   0  0  0  0  0  0  0  0  0  9  0  0
    5.0405   -2.1781   -0.1203 C   0  0  0  0  0  0  0  0  0 10  0  0
    3.6672   -2.1999    0.0954 C   0  0  0  0  0  0  0  0  0 11  0  0
    2.9421   -1.0141    0.0724 C   0  0  0  0  0  0  0  0  0 12  0  0
    1.5999   -1.0341    0.2831 O   0  0  0  0  0  0  0  0  0 13  0  0
    0.8901    0.1244    0.2609 C   0  0  0  0  0  0  0  0  0 14  0  0
   -0.4829    0.1026    0.4765 C   0  0  0  0  0  0  0  0  0 15  0  0
 15  2  4  0
 14 15  4  0
 14  5  4  0
 13 14  1  0
 12 13  1  0
 12  7  4  0
 11 12  4  0
 10 11  4  0
  9 10  4  0
  8  9  4  0
  7  8  4  0
  6  7  1  0
  5  6  1  0
  4  5  4  0
  3  4  4  0
  2  3  4  0
  1  2  1  0
M  END