1,2,3,4,7-pentachlorodibenzo-p-dioxin
  SciTegic01131010503D

 19 21  0  0  0  0            999 V2000
   -2.5108    1.9540   -0.4108 Cl  0  0  0  0  0  0  0  0  0  1  0  0
   -0.8138    1.6901   -0.2272 C   0  0  0  0  0  0  0  0  0  2  0  0
    0.0544    2.7735   -0.1565 C   0  0  0  0  0  0  0  0  0  3  0  0
   -0.5640    4.3833   -0.2521 Cl  0  0  0  0  0  0  0  0  0  4  0  0
    1.4202    2.5614   -0.0087 C   0  0  0  0  0  0  0  0  0  5  0  0
    2.4996    3.9064    0.0793 Cl  0  0  0  0  0  0  0  0  0  6  0  0
    1.9175    1.2660    0.0682 C   0  0  0  0  0  0  0  0  0  7  0  0
    3.2518    1.0584    0.2126 O   0  0  0  0  0  0  0  0  0  8  0  0
    3.7386   -0.2075    0.2881 C   0  0  0  0  0  0  0  0  0  9  0  0
    5.1045   -0.4191    0.4360 C   0  0  0  0  0  0  0  0  0 10  0  0
    5.6016   -1.7152    0.5132 C   0  0  0  0  0  0  0  0  0 11  0  0
    4.7331   -2.7987    0.4424 C   0  0  0  0  0  0  0  0  0 12  0  0
    5.3519   -4.4090    0.5384 Cl  0  0  0  0  0  0  0  0  0 13  0  0
    3.3670   -2.5871    0.2944 C   0  0  0  0  0  0  0  0  0 14  0  0
    2.8700   -1.2913    0.2173 C   0  0  0  0  0  0  0  0  0 15  0  0
    1.5354   -1.0833    0.0727 O   0  0  0  0  0  0  0  0  0 16  0  0
    1.0491    0.1824   -0.0025 C   0  0  0  0  0  0  0  0  0 17  0  0
   -0.3163    0.3944   -0.1502 C   0  0  0  0  0  0  0  0  0 18  0  0
   -1.3939   -0.9521   -0.2380 Cl  0  0  0  0  0  0  0  0  0 19  0  0
 18 19  1  0
 18  2  4  0
 17 18  4  0
 17  7  4  0
 16 17  1  0
 15 16  1  0
 15  9  4  0
 14 15  4  0
 12 14  4  0
 12 13  1  0
 11 12  4  0
 10 11  4  0
  9 10  4  0
  8  9  1  0
  7  8  1  0
  5  7  4  0
  5  6  1  0
  3  5  4  0
  3  4  1  0
  2  3  4  0
  1  2  1  0
M  END