2,3,7,8-TCDF
  SciTegic01131010503D

 17 19  0  0  0  0            999 V2000
   -2.6939    1.7311    1.1805 Cl  0  0  0  0  0  0  0  0  0  1  0  0
   -1.1090    1.2342    0.7057 C   0  0  0  0  0  0  0  0  0  2  0  0
    0.0022    1.7821    1.3492 C   0  0  0  0  0  0  0  0  0  3  0  0
    1.2533    1.3539    0.9353 C   0  0  0  0  0  0  0  0  0  4  0  0
    2.4217    1.7186    1.3817 O   0  0  0  0  0  0  0  0  0  5  0  0
    3.3208    1.0625    0.7047 C   0  0  0  0  0  0  0  0  0  6  0  0
    4.7000    1.1199    0.8252 C   0  0  0  0  0  0  0  0  0  7  0  0
    5.4530    0.3093   -0.0263 C   0  0  0  0  0  0  0  0  0  8  0  0
    7.1769    0.3399    0.0794 Cl  0  0  0  0  0  0  0  0  0  9  0  0
    4.8381   -0.5283   -0.9647 C   0  0  0  0  0  0  0  0  0 10  0  0
    5.8151   -1.5119   -1.9952 Cl  0  0  0  0  0  0  0  0  0 11  0  0
    3.4493   -0.5804   -1.0798 C   0  0  0  0  0  0  0  0  0 12  0  0
    2.7310    0.2342   -0.2224 C   0  0  0  0  0  0  0  0  0 13  0  0
    1.3797    0.4247   -0.0717 C   0  0  0  0  0  0  0  0  0 14  0  0
    0.2985   -0.1364   -0.7283 C   0  0  0  0  0  0  0  0  0 15  0  0
   -0.9642    0.2895   -0.3174 C   0  0  0  0  0  0  0  0  0 16  0  0
   -2.3714   -0.3581   -1.0820 Cl  0  0  0  0  0  0  0  0  0 17  0  0
 16 17  1  0
 16  2  4  0
 15 16  4  0
 14 15  4  0
 14  4  4  0
 13 14  4  0
 13  6  4  0
 12 13  4  0
 10 12  4  0
 10 11  1  0
  8 10  4  0
  8  9  1  0
  7  8  4  0
  6  7  4  0
  5  6  4  0
  4  5  4  0
  3  4  4  0
  2  3  4  0
  1  2  1  0
M  END