metolachlor
  SciTegic01131010503D

 19 19  0  0  0  0            999 V2000
    1.8764   -0.6530    4.3489 C   0  0  0  0  0  0  0  0  0  1  0  0
    1.3514   -0.2305    2.9625 C   0  0  0  0  0  0  0  0  0  2  0  0
    1.8058   -1.2139    1.8965 C   0  0  0  0  0  0  0  0  0  3  0  0
    2.5772   -2.3063    2.2785 C   0  0  0  0  0  0  0  0  0  4  0  0
    3.0068   -3.2300    1.3359 C   0  0  0  0  0  0  0  0  0  5  0  0
    2.6611   -3.0627    0.0025 C   0  0  0  0  0  0  0  0  0  6  0  0
    1.8906   -1.9757   -0.3928 C   0  0  0  0  0  0  0  0  0  7  0  0
    1.5411   -1.8419   -1.8569 C   0  0  0  0  0  0  0  0  0  8  0  0
    1.4566   -1.0368    0.5516 C   0  0  0  0  0  0  0  0  0  9  0  0
    0.6469    0.1019    0.1450 N   0  0  0  0  0  0  0  0  0 10  0  0
    1.2841    1.4297   -0.1744 C   0  0  0  0  0  0  0  0  0 11  0  0
    0.7728    2.0034   -1.5274 C   0  0  0  0  0  0  0  0  0 12  0  0
    2.8430    1.3813   -0.1822 C   0  0  0  0  0  0  0  0  0 13  0  0
    3.4008    2.6930   -0.3647 O   0  0  0  0  0  0  0  0  0 14  0  0
    3.1514    3.5066    0.7962 C   0  0  0  0  0  0  0  0  0 15  0  0
   -0.8004   -0.0309    0.1048 C   0  0  0  0  0  0  0  0  0 16  0  0
   -1.5169    0.9305   -0.1962 O   0  0  0  0  0  0  0  0  0 17  0  0
   -1.4728   -1.3379    0.4541 C   0  0  0  0  0  0  0  0  0 18  0  0
   -3.2229   -1.1514    0.3147 Cl  0  0  0  0  0  0  0  0  0 19  0  0
 18 19  1  0
 16 18  1  0
 16 17  2  0
 10 16  1  0
 14 15  1  0
 13 14  1  0
 11 13  1  0
 11 12  1  0
 10 11  1  0
  9 10  1  0
  9  3  4  0
  7  9  4  0
  7  8  1  0
  6  7  4  0
  5  6  4  0
  4  5  4  0
  3  4  4  0
  2  3  1  0
  1  2  1  0
M  END