2,2',3,3',4,5,5',6,6'-nonachlorobiphenyl  (PCB 208)
  SciTegic01131010503D

 21 22  0  0  0  0            999 V2000
   -3.1583    1.8591    3.4260 Cl  0  0  0  0  0  0  0  0  0  1  0  0
   -1.6900    2.0760    2.5426 C   0  0  0  0  0  0  0  0  0  2  0  0
   -1.0234    3.2915    2.5985 C   0  0  0  0  0  0  0  0  0  3  0  0
    0.1597    3.4574    1.8932 C   0  0  0  0  0  0  0  0  0  4  0  0
    0.9898    4.9710    1.9502 Cl  0  0  0  0  0  0  0  0  0  5  0  0
    0.6780    2.4142    1.1352 C   0  0  0  0  0  0  0  0  0  6  0  0
    2.1434    2.6985    0.2517 Cl  0  0  0  0  0  0  0  0  0  7  0  0
    0.0127    1.1862    1.0713 C   0  0  0  0  0  0  0  0  0  8  0  0
   -1.1798    1.0291    1.7843 C   0  0  0  0  0  0  0  0  0  9  0  0
   -2.0453   -0.4740    1.7837 Cl  0  0  0  0  0  0  0  0  0 10  0  0
    0.5725    0.0486    0.2461 C   0  0  0  0  0  0  0  0  0 11  0  0
   -0.2044   -0.5632   -0.7425 C   0  0  0  0  0  0  0  0  0 12  0  0
   -1.8177   -0.0285   -1.0884 Cl  0  0  0  0  0  0  0  0  0 13  0  0
    0.3140   -1.6069   -1.4996 C   0  0  0  0  0  0  0  0  0 14  0  0
   -0.6561   -2.3450   -2.7230 Cl  0  0  0  0  0  0  0  0  0 15  0  0
    1.6080   -2.0556   -1.2803 C   0  0  0  0  0  0  0  0  0 16  0  0
    2.2472   -3.3544   -2.2225 Cl  0  0  0  0  0  0  0  0  0 17  0  0
    2.3864   -1.4565   -0.3009 C   0  0  0  0  0  0  0  0  0 18  0  0
    3.9956   -2.0169   -0.0195 Cl  0  0  0  0  0  0  0  0  0 19  0  0
    1.8762   -0.4102    0.4582 C   0  0  0  0  0  0  0  0  0 20  0  0
    2.8897    0.2741    1.6881 Cl  0  0  0  0  0  0  0  0  0 21  0  0
 20 21  1  0
 20 11  4  0
 18 20  4  0
 18 19  1  0
 16 18  4  0
 16 17  1  0
 14 16  4  0
 14 15  1  0
 12 14  4  0
 12 13  1  0
 11 12  4  0
  8 11  1  0
  9 10  1  0
  9  2  4  0
  8  9  4  0
  6  8  4  0
  6  7  1  0
  4  6  4  0
  4  5  1  0
  3  4  4  0
  2  3  4  0
  1  2  1  0
M  END