"1,2-propanediol"	000057-55-6	57-55-6	2
  SciTegic06061110132D

  6  5  0  0  0  0            999 V2000
    0.0000    0.0000    0.0000 C   0  0
    0.0000    0.0000    0.0000 C   0  0
    0.0000    0.0000    0.0000 H   0  0
    0.0000    0.0000    0.0000 O   0  0
    0.0000    0.0000    0.0000 C   0  0
    0.0000    0.0000    0.0000 O   0  0
  1  2  1  0
  2  3  1  0
  2  4  1  0
  2  5  1  0
  5  6  1  0
M  END
> <Name>
"1,2-propanediol"	000057-55-6	57-55-6	2

> <CAS>
000057-55-6

> <HOMO>
-10.86

> <D Path Sum F rel>
0

> <G Cl Br I>
0

> <SeaC2C2aa>
0

> <logOH_exp>
10.92

> <logOH pred>
11.31

> <HAT>
0.008

> <HAT ref>
0.07

> <Mol Id>
2

> <SMILES>
C[C@H](O)CO

$$$$
monomethylhydrazine	000060-34-4	60-34-4	4
  SciTegic06061110132D

  3  2  0  0  0  0            999 V2000
    0.0000    0.0000    0.0000 C   0  0
    0.0000    0.0000    0.0000 N   0  0
    0.0000    0.0000    0.0000 N   0  0
  1  2  1  0
  2  3  1  0
M  END
> <Name>
monomethylhydrazine	000060-34-4	60-34-4	4

> <CAS>
000060-34-4

> <HOMO>
-9.72

> <D Path Sum F rel>
0

> <G Cl Br I>
0

> <SeaC2C2aa>
0

> <logOH_exp>
10.19

> <logOH pred>
10.53

> <HAT>
0.008

> <HAT ref>
0.07

> <Mol Id>
4

> <SMILES>
CNN

$$$$
aniline	000062-53-3	62-53-3	5
  SciTegic06061110132D

  7  7  0  0  0  0            999 V2000
    0.0000    0.0000    0.0000 N   0  0
    0.0000    0.0000    0.0000 C   0  0
    0.0000    0.0000    0.0000 C   0  0
    0.0000    0.0000    0.0000 C   0  0
    0.0000    0.0000    0.0000 C   0  0
    0.0000    0.0000    0.0000 C   0  0
    0.0000    0.0000    0.0000 C   0  0
  1  2  1  0
  2  7  1  0
  2  3  2  3
  3  4  1  0
  4  5  2  3
  5  6  1  0
  6  7  2  3
M  END
> <Name>
aniline	000062-53-3	62-53-3	5

> <CAS>
000062-53-3

> <HOMO>
-8.21

> <D Path Sum F rel>
0

> <G Cl Br I>
0

> <SeaC2C2aa>
10.93693

> <logOH_exp>
9.93

> <logOH pred>
10.11

> <HAT>
0.024

> <HAT ref>
0.07

> <Mol Id>
5

> <SMILES>
NC1=CC=CC=C1

$$$$
ethanol	000064-17-5	64-17-5	6
  SciTegic06061110132D

  3  2  0  0  0  0            999 V2000
    0.0000    0.0000    0.0000 C   0  0
    0.0000    0.0000    0.0000 C   0  0
    0.0000    0.0000    0.0000 O   0  0
  1  2  1  0
  2  3  1  0
M  END
> <Name>
ethanol	000064-17-5	64-17-5	6

> <CAS>
000064-17-5

> <HOMO>
-10.88

> <D Path Sum F rel>
0

> <G Cl Br I>
0

> <SeaC2C2aa>
0

> <logOH_exp>
11.52

> <logOH pred>
11.33

> <HAT>
0.008

> <HAT ref>
0.07

> <Mol Id>
6

> <SMILES>
CCO

$$$$
formic acid	000064-18-6	64-18-6	7
  SciTegic06061110132D

  3  2  0  0  0  0            999 V2000
    0.0000    0.0000    0.0000 O   0  0
    0.0000    0.0000    0.0000 C   0  0
    0.0000    0.0000    0.0000 O   0  0
  1  2  1  0
  2  3  2  0
M  END
> <Name>
formic acid	000064-18-6	64-18-6	7

> <CAS>
000064-18-6

> <HOMO>
-11.5

> <D Path Sum F rel>
0

> <G Cl Br I>
0

> <SeaC2C2aa>
0

> <logOH_exp>
12.5

> <logOH pred>
11.75

> <HAT>
0.015

> <HAT ref>
0.07

> <Mol Id>
7

> <SMILES>
OC=O

$$$$
acetic acid	000064-19-7	64-19-7	8
  SciTegic06061110132D

  4  3  0  0  0  0            999 V2000
    0.0000    0.0000    0.0000 C   0  0
    0.0000    0.0000    0.0000 C   0  0
    0.0000    0.0000    0.0000 O   0  0
    0.0000    0.0000    0.0000 O   0  0
  1  2  1  0
  2  3  1  0
  2  4  2  0
M  END
> <Name>
acetic acid	000064-19-7	64-19-7	8

> <CAS>
000064-19-7

> <HOMO>
-11.62

> <D Path Sum F rel>
0

> <G Cl Br I>
0

> <SeaC2C2aa>
0

> <logOH_exp>
12.22

> <logOH pred>
11.83

> <HAT>
0.016

> <HAT ref>
0.07

> <Mol Id>
8

> <SMILES>
CC(O)=O

$$$$
methanol	000067-56-1	67-56-1	9
  SciTegic06061110132D

  2  1  0  0  0  0            999 V2000
    0.0000    0.0000    0.0000 C   0  0
    0.0000    0.0000    0.0000 O   0  0
  1  2  1  0
M  END
> <Name>
methanol	000067-56-1	67-56-1	9

> <CAS>
000067-56-1

> <HOMO>
-11.13

> <D Path Sum F rel>
0

> <G Cl Br I>
0

> <SeaC2C2aa>
0

> <logOH_exp>
12.03

> <logOH pred>
11.5

> <HAT>
0.01

> <HAT ref>
0.07

> <Mol Id>
9

> <SMILES>
CO

$$$$
trichloromethane	000067-66-3	67-66-3	12
  SciTegic06061110132D

  4  3  0  0  0  0            999 V2000
    0.0000    0.0000    0.0000 Cl  0  0
    0.0000    0.0000    0.0000 C   0  0
    0.0000    0.0000    0.0000 Cl  0  0
    0.0000    0.0000    0.0000 Cl  0  0
  1  2  1  0
  2  3  1  0
  2  4  1  0
M  END
> <Name>
trichloromethane	000067-66-3	67-66-3	12

> <CAS>
000067-66-3

> <HOMO>
-11.77

> <D Path Sum F rel>
0

> <G Cl Br I>
3

> <SeaC2C2aa>
0

> <logOH_exp>
13

> <logOH pred>
13.38

> <HAT>
0.103*

> <HAT ref>
0.07

> <Mol Id>
12

> <SMILES>
ClC(Cl)Cl

$$$$
1-propanol	000071-23-8	71-23-8	13
  SciTegic06061110132D

  4  3  0  0  0  0            999 V2000
    0.0000    0.0000    0.0000 C   0  0
    0.0000    0.0000    0.0000 C   0  0
    0.0000    0.0000    0.0000 C   0  0
    0.0000    0.0000    0.0000 O   0  0
  1  2  1  0
  2  3  1  0
  3  4  1  0
M  END
> <Name>
1-propanol	000071-23-8	71-23-8	13

> <CAS>
000071-23-8

> <HOMO>
-10.85

> <D Path Sum F rel>
0

> <G Cl Br I>
0

> <SeaC2C2aa>
0

> <logOH_exp>
11.27

> <logOH pred>
11.31

> <HAT>
0.008

> <HAT ref>
0.07

> <Mol Id>
13

> <SMILES>
CCCO

$$$$
1-pentanol	000071-41-0	71-41-0	15
  SciTegic06061110132D

  6  5  0  0  0  0            999 V2000
    0.0000    0.0000    0.0000 C   0  0
    0.0000    0.0000    0.0000 C   0  0
    0.0000    0.0000    0.0000 C   0  0
    0.0000    0.0000    0.0000 C   0  0
    0.0000    0.0000    0.0000 C   0  0
    0.0000    0.0000    0.0000 O   0  0
  1  2  1  0
  2  3  1  0
  3  4  1  0
  4  5  1  0
  5  6  1  0
M  END
> <Name>
1-pentanol	000071-41-0	71-41-0	15

> <CAS>
000071-41-0

> <HOMO>
-10.85

> <D Path Sum F rel>
0

> <G Cl Br I>
0

> <SeaC2C2aa>
0

> <logOH_exp>
10.97

> <logOH pred>
11.31

> <HAT>
0.008

> <HAT ref>
0.07

> <Mol Id>
15

> <SMILES>
CCCCCO

$$$$
benzene	000071-43-2	71-43-2	16
  SciTegic06061110132D

  6  6  0  0  0  0            999 V2000
    0.0000    0.0000    0.0000 C   0  0
    0.0000    0.0000    0.0000 C   0  0
    0.0000    0.0000    0.0000 C   0  0
    0.0000    0.0000    0.0000 C   0  0
    0.0000    0.0000    0.0000 C   0  0
    0.0000    0.0000    0.0000 C   0  0
  1  6  1  0
  1  2  2  3
  2  3  1  0
  3  4  2  3
  4  5  1  0
  5  6  2  3
M  END
> <Name>
benzene	000071-43-2	71-43-2	16

> <CAS>
000071-43-2

> <HOMO>
-9.65

> <D Path Sum F rel>
0

> <G Cl Br I>
0

> <SeaC2C2aa>
17.08333

> <logOH_exp>
11.91

> <logOH pred>
11.45

> <HAT>
0.051

> <HAT ref>
0.07

> <Mol Id>
16

> <SMILES>
C1=CC=CC=C1

$$$$
"1,1,1-trichloroethane"	000071-55-6	71-55-6	17
  SciTegic06061110132D

  5  4  0  0  0  0            999 V2000
    0.0000    0.0000    0.0000 C   0  0
    0.0000    0.0000    0.0000 C   0  0
    0.0000    0.0000    0.0000 Cl  0  0
    0.0000    0.0000    0.0000 Cl  0  0
    0.0000    0.0000    0.0000 Cl  0  0
  1  2  1  0
  2  3  1  0
  2  4  1  0
  2  5  1  0
M  END
> <Name>
"1,1,1-trichloroethane"	000071-55-6	71-55-6	17

> <CAS>
000071-55-6

> <HOMO>
-11.99

> <D Path Sum F rel>
0

> <G Cl Br I>
3

> <SeaC2C2aa>
0

> <logOH_exp>
13.8

> <logOH pred>
13.53

> <HAT>
0.105*

> <HAT ref>
0.07

> <Mol Id>
17

> <SMILES>
CC(Cl)(Cl)Cl

$$$$
ethyne	000074-86-2	74-86-2	21
  SciTegic06061110132D

  2  1  0  0  0  0            999 V2000
    0.0000    0.0000    0.0000 C   0  0
    0.0000    0.0000    0.0000 C   0  0
  1  2  3  0
M  END
> <Name>
ethyne	000074-86-2	74-86-2	21

> <CAS>
000074-86-2

> <HOMO>
-11.5

> <D Path Sum F rel>
0

> <G Cl Br I>
0

> <SeaC2C2aa>
0

> <logOH_exp>
12.06

> <logOH pred>
11.75

> <HAT>
0.015

> <HAT ref>
0.07

> <Mol Id>
21

> <SMILES>
C#C

$$$$
methanethiol	000074-93-1	74-93-1	25
  SciTegic06061110132D

  2  1  0  0  0  0            999 V2000
    0.0000    0.0000    0.0000 C   0  0
    0.0000    0.0000    0.0000 S   0  0
  1  2  1  0
M  END
> <Name>
methanethiol	000074-93-1	74-93-1	25

> <CAS>
000074-93-1

> <HOMO>
-8.93

> <D Path Sum F rel>
0

> <G Cl Br I>
0

> <SeaC2C2aa>
0

> <logOH_exp>
10.47

> <logOH pred>
9.98

> <HAT>
0.017

> <HAT ref>
0.07

> <Mol Id>
25

> <SMILES>
CS

$$$$
1-chloroethane	000075-00-3	75-00-3	29
  SciTegic06061110132D

  3  2  0  0  0  0            999 V2000
    0.0000    0.0000    0.0000 C   0  0
    0.0000    0.0000    0.0000 C   0  0
    0.0000    0.0000    0.0000 Cl  0  0
  1  2  1  0
  2  3  1  0
M  END
> <Name>
1-chloroethane	000075-00-3	75-00-3	29

> <CAS>
000075-00-3

> <HOMO>
-11.15

> <D Path Sum F rel>
0

> <G Cl Br I>
1

> <SeaC2C2aa>
0

> <logOH_exp>
12.41

> <logOH pred>
11.99

> <HAT>
0.016

> <HAT ref>
0.07

> <Mol Id>
29

> <SMILES>
CCCl

$$$$
1-fluoroethene	000075-02-5	75-02-5	31
  SciTegic06061110132D

  3  2  0  0  0  0            999 V2000
    0.0000    0.0000    0.0000 F   0  0
    0.0000    0.0000    0.0000 C   0  0
    0.0000    0.0000    0.0000 C   0  0
  1  2  1  0
  2  3  2  0
M  END
> <Name>
1-fluoroethene	000075-02-5	75-02-5	31

> <CAS>
000075-02-5

> <HOMO>
-10.24

> <D Path Sum F rel>
0.75

> <G Cl Br I>
0

> <SeaC2C2aa>
0

> <logOH_exp>
11.26

> <logOH pred>
11.86

> <HAT>
0.05

> <HAT ref>
0.07

> <Mol Id>
31

> <SMILES>
FC=C

$$$$
acetaldehyde	000075-07-0	75-07-0	33
  SciTegic06061110132D

  3  2  0  0  0  0            999 V2000
    0.0000    0.0000    0.0000 C   0  0
    0.0000    0.0000    0.0000 C   0  0
    0.0000    0.0000    0.0000 O   0  0
  1  2  1  0
  2  3  2  0
M  END
> <Name>
acetaldehyde	000075-07-0	75-07-0	33

> <CAS>
000075-07-0

> <HOMO>
-10.71

> <D Path Sum F rel>
0

> <G Cl Br I>
0

> <SeaC2C2aa>
0

> <logOH_exp>
10.82

> <logOH pred>
11.21

> <HAT>
0.007

> <HAT ref>
0.07

> <Mol Id>
33

> <SMILES>
CC=O

$$$$
dimethyl sulfide	000075-18-3	75-18-3	37
  SciTegic06061110132D

  3  2  0  0  0  0            999 V2000
    0.0000    0.0000    0.0000 C   0  0
    0.0000    0.0000    0.0000 S   0  0
    0.0000    0.0000    0.0000 C   0  0
  1  2  1  0
  2  3  1  0
M  END
> <Name>
dimethyl sulfide	000075-18-3	75-18-3	37

> <CAS>
000075-18-3

> <HOMO>
-8.48

> <D Path Sum F rel>
0

> <G Cl Br I>
0

> <SeaC2C2aa>
0

> <logOH_exp>
11.37

> <logOH pred>
9.68

> <HAT>
0.026

> <HAT ref>
0.07

> <Mol Id>
37

> <SMILES>
CSC

$$$$
"1,1-dichloroethane"	000075-34-3	75-34-3	43
  SciTegic06061110132D

  4  3  0  0  0  0            999 V2000
    0.0000    0.0000    0.0000 C   0  0
    0.0000    0.0000    0.0000 C   0  0
    0.0000    0.0000    0.0000 Cl  0  0
    0.0000    0.0000    0.0000 Cl  0  0
  1  2  1  0
  2  3  1  0
  2  4  1  0
M  END
> <Name>
"1,1-dichloroethane"	000075-34-3	75-34-3	43

> <CAS>
000075-34-3

> <HOMO>
-11.42

> <D Path Sum F rel>
0

> <G Cl Br I>
2

> <SeaC2C2aa>
0

> <logOH_exp>
12.59

> <logOH pred>
12.66

> <HAT>
0.047

> <HAT ref>
0.07

> <Mol Id>
43

> <SMILES>
CC(Cl)Cl

$$$$
acetyl chloride	000075-36-5	75-36-5	45
  SciTegic06061110132D

  4  3  0  0  0  0            999 V2000
    0.0000    0.0000    0.0000 C   0  0
    0.0000    0.0000    0.0000 C   0  0
    0.0000    0.0000    0.0000 Cl  0  0
    0.0000    0.0000    0.0000 O   0  0
  1  2  1  0
  2  3  1  0
  2  4  2  0
M  END
> <Name>
acetyl chloride	000075-36-5	75-36-5	45

> <CAS>
000075-36-5

> <HOMO>
-11.57

> <D Path Sum F rel>
0

> <G Cl Br I>
1

> <SeaC2C2aa>
0

> <logOH_exp>
13.17

> <logOH pred>
12.28

> <HAT>
0.02

> <HAT ref>
0.07

> <Mol Id>
45

> <SMILES>
CC(Cl)=O

$$$$
"dichloro, fluoromethane"	000075-43-4	75-43-4	48
  SciTegic06061110132D

  4  3  0  0  0  0            999 V2000
    0.0000    0.0000    0.0000 F   0  0
    0.0000    0.0000    0.0000 C   0  0
    0.0000    0.0000    0.0000 Cl  0  0
    0.0000    0.0000    0.0000 Cl  0  0
  1  2  1  0
  2  3  1  0
  2  4  1  0
M  END
> <Name>
"dichloro, fluoromethane"	000075-43-4	75-43-4	48

> <CAS>
000075-43-4

> <HOMO>
-12.03

> <D Path Sum F rel>
0.5555556

> <G Cl Br I>
2

> <SeaC2C2aa>
0

> <logOH_exp>
13.54

> <logOH pred>
13.8

> <HAT>
0.057

> <HAT ref>
0.07

> <Mol Id>
48

> <SMILES>
FC(Cl)Cl

$$$$
trifluoromethane	000075-46-7	75-46-7	50
  SciTegic06061110132D

  4  3  0  0  0  0            999 V2000
    0.0000    0.0000    0.0000 F   0  0
    0.0000    0.0000    0.0000 C   0  0
    0.0000    0.0000    0.0000 F   0  0
    0.0000    0.0000    0.0000 F   0  0
  1  2  1  0
  2  3  1  0
  2  4  1  0
M  END
> <Name>
trifluoromethane	000075-46-7	75-46-7	50

> <CAS>
000075-46-7

> <HOMO>
-13.31

> <D Path Sum F rel>
1.666667

> <G Cl Br I>
0

> <SeaC2C2aa>
0

> <logOH_exp>
15.7

> <logOH pred>
15.17

> <HAT>
0.218*

> <HAT ref>
0.07

> <Mol Id>
50

> <SMILES>
FC(F)F

$$$$
trimethyl-amine	000075-50-3	75-50-3	51
  SciTegic06061110132D

  4  3  0  0  0  0            999 V2000
    0.0000    0.0000    0.0000 C   0  0
    0.0000    0.0000    0.0000 N   0  0
    0.0000    0.0000    0.0000 C   0  0
    0.0000    0.0000    0.0000 C   0  0
  1  2  1  0
  2  3  1  0
  2  4  1  0
M  END
> <Name>
trimethyl-amine	000075-50-3	75-50-3	51

> <CAS>
000075-50-3

> <HOMO>
-9.12

> <D Path Sum F rel>
0

> <G Cl Br I>
0

> <SeaC2C2aa>
0

> <logOH_exp>
10.22

> <logOH pred>
10.12

> <HAT>
0.014

> <HAT ref>
0.07

> <Mol Id>
51

> <SMILES>
CN(C)C

$$$$
2-methyl-2-propanol	000075-65-0	75-65-0	53
  SciTegic06061110132D

  5  4  0  0  0  0            999 V2000
    0.0000    0.0000    0.0000 C   0  0
    0.0000    0.0000    0.0000 C   0  0
    0.0000    0.0000    0.0000 C   0  0
    0.0000    0.0000    0.0000 C   0  0
    0.0000    0.0000    0.0000 O   0  0
  1  2  1  0
  2  3  1  0
  2  4  1  0
  2  5  1  0
M  END
> <Name>
2-methyl-2-propanol	000075-65-0	75-65-0	53

> <CAS>
000075-65-0

> <HOMO>
-10.99

> <D Path Sum F rel>
0

> <G Cl Br I>
0

> <SeaC2C2aa>
0

> <logOH_exp>
11.97

> <logOH pred>
11.4

> <HAT>
0.009

> <HAT ref>
0.07

> <Mol Id>
53

> <SMILES>
CC(C)(C)O

$$$$
"1-chloro-1,1-difluoroethane"	000075-68-3	75-68-3	55
  SciTegic06061110132D

  5  4  0  0  0  0            999 V2000
    0.0000    0.0000    0.0000 C   0  0
    0.0000    0.0000    0.0000 C   0  0
    0.0000    0.0000    0.0000 F   0  0
    0.0000    0.0000    0.0000 F   0  0
    0.0000    0.0000    0.0000 Cl  0  0
  1  2  1  0
  2  3  1  0
  2  4  1  0
  2  5  1  0
M  END
> <Name>
"1-chloro-1,1-difluoroethane"	000075-68-3	75-68-3	55

> <CAS>
000075-68-3

> <HOMO>
-12.19

> <D Path Sum F rel>
0.875

> <G Cl Br I>
1

> <SeaC2C2aa>
0

> <logOH_exp>
14.33

> <logOH pred>
13.85

> <HAT>
0.062

> <HAT ref>
0.07

> <Mol Id>
55

> <SMILES>
CC(F)(F)Cl

$$$$
"1-chloro-2,2,2-trifluoroethane"	000075-88-7	75-88-7	57
  SciTegic06061110132D

  6  5  0  0  0  0            999 V2000
    0.0000    0.0000    0.0000 F   0  0
    0.0000    0.0000    0.0000 C   0  0
    0.0000    0.0000    0.0000 F   0  0
    0.0000    0.0000    0.0000 F   0  0
    0.0000    0.0000    0.0000 C   0  0
    0.0000    0.0000    0.0000 Cl  0  0
  1  2  1  0
  2  3  1  0
  2  4  1  0
  2  5  1  0
  5  6  1  0
M  END
> <Name>
"1-chloro-2,2,2-trifluoroethane"	000075-88-7	75-88-7	57

> <CAS>
000075-88-7

> <HOMO>
-12.09

> <D Path Sum F rel>
1.071429

> <G Cl Br I>
1

> <SeaC2C2aa>
0

> <logOH_exp>
13.98

> <logOH pred>
14.04

> <HAT>
0.087*

> <HAT ref>
0.07

> <Mol Id>
57

> <SMILES>
FC(F)(F)CCl

$$$$
"2,2-dimethoxypropane"	000077-76-9	77-76-9	60
  SciTegic06061110132D

  7  6  0  0  0  0            999 V2000
    0.0000    0.0000    0.0000 C   0  0
    0.0000    0.0000    0.0000 O   0  0
    0.0000    0.0000    0.0000 C   0  0
    0.0000    0.0000    0.0000 C   0  0
    0.0000    0.0000    0.0000 C   0  0
    0.0000    0.0000    0.0000 O   0  0
    0.0000    0.0000    0.0000 C   0  0
  1  2  1  0
  2  3  1  0
  3  4  1  0
  3  5  1  0
  3  6  1  0
  6  7  1  0
M  END
> <Name>
"2,2-dimethoxypropane"	000077-76-9	77-76-9	60

> <CAS>
000077-76-9

> <HOMO>
-10.64

> <D Path Sum F rel>
0

> <G Cl Br I>
0

> <SeaC2C2aa>
0

> <logOH_exp>
11.41

> <logOH pred>
11.16

> <HAT>
0.007

> <HAT ref>
0.07

> <Mol Id>
60

> <SMILES>
COC(C)(C)OC

$$$$
2-butanone	000078-93-3	78-93-3	67
  SciTegic06061110132D

  5  4  0  0  0  0            999 V2000
    0.0000    0.0000    0.0000 C   0  0
    0.0000    0.0000    0.0000 C   0  0
    0.0000    0.0000    0.0000 C   0  0
    0.0000    0.0000    0.0000 C   0  0
    0.0000    0.0000    0.0000 O   0  0
  1  2  1  0
  2  3  1  0
  3  4  1  0
  3  5  2  0
M  END
> <Name>
2-butanone	000078-93-3	78-93-3	67

> <CAS>
000078-93-3

> <HOMO>
-10.54

> <D Path Sum F rel>
0

> <G Cl Br I>
0

> <SeaC2C2aa>
0

> <logOH_exp>
11.94

> <logOH pred>
11.09

> <HAT>
0.006

> <HAT ref>
0.07

> <Mol Id>
67

> <SMILES>
CCC(C)=O

$$$$
methyl vinyl ketone	000078-94-4	78-94-4	68
  SciTegic06061110132D

  5  4  0  0  0  0            999 V2000
    0.0000    0.0000    0.0000 C   0  0
    0.0000    0.0000    0.0000 C   0  0
    0.0000    0.0000    0.0000 O   0  0
    0.0000    0.0000    0.0000 C   0  0
    0.0000    0.0000    0.0000 C   0  0
  1  2  1  0
  2  3  2  0
  2  4  1  0
  4  5  2  0
M  END
> <Name>
methyl vinyl ketone	000078-94-4	78-94-4	68

> <CAS>
000078-94-4

> <HOMO>
-10.63

> <D Path Sum F rel>
0

> <G Cl Br I>
0

> <SeaC2C2aa>
0

> <logOH_exp>
10.71

> <logOH pred>
11.15

> <HAT>
0.007

> <HAT ref>
0.07

> <Mol Id>
68

> <SMILES>
CC(=O)C=C

$$$$
"1,1,2-trichloroethene"	000079-01-6	79-01-6	71
  SciTegic06061110132D

  5  4  0  0  0  0            999 V2000
    0.0000    0.0000    0.0000 Cl  0  0
    0.0000    0.0000    0.0000 C   0  0
    0.0000    0.0000    0.0000 C   0  0
    0.0000    0.0000    0.0000 Cl  0  0
    0.0000    0.0000    0.0000 Cl  0  0
  1  2  1  0
  2  3  2  3
  3  4  1  0
  3  5  1  0
M  END
> <Name>
"1,1,2-trichloroethene"	000079-01-6	79-01-6	71

> <CAS>
000079-01-6

> <HOMO>
-9.96

> <D Path Sum F rel>
0

> <G Cl Br I>
3

> <SeaC2C2aa>
0

> <logOH_exp>
11.63

> <logOH pred>
12.13

> <HAT>
0.106*

> <HAT ref>
0.07

> <Mol Id>
71

> <SMILES>
Cl\C=C(\Cl)Cl

$$$$
methyl acetate	000079-20-9	79-20-9	73
  SciTegic06061110132D

  5  4  0  0  0  0            999 V2000
    0.0000    0.0000    0.0000 C   0  0
    0.0000    0.0000    0.0000 O   0  0
    0.0000    0.0000    0.0000 C   0  0
    0.0000    0.0000    0.0000 C   0  0
    0.0000    0.0000    0.0000 O   0  0
  1  2  1  0
  2  3  1  0
  3  4  1  0
  3  5  2  0
M  END
> <Name>
methyl acetate	000079-20-9	79-20-9	73

> <CAS>
000079-20-9

> <HOMO>
-11.4

> <D Path Sum F rel>
0

> <G Cl Br I>
0

> <SeaC2C2aa>
0

> <logOH_exp>
12.77

> <logOH pred>
11.68

> <HAT>
0.013

> <HAT ref>
0.07

> <Mol Id>
73

> <SMILES>
COC(C)=O

$$$$
isobutyric acid	000079-31-2	79-31-2	76
  SciTegic06061110132D

  6  5  0  0  0  0            999 V2000
    0.0000    0.0000    0.0000 C   0  0
    0.0000    0.0000    0.0000 C   0  0
    0.0000    0.0000    0.0000 C   0  0
    0.0000    0.0000    0.0000 C   0  0
    0.0000    0.0000    0.0000 O   0  0
    0.0000    0.0000    0.0000 O   0  0
  1  2  1  0
  2  3  1  0
  2  4  1  0
  4  5  1  0
  4  6  2  0
M  END
> <Name>
isobutyric acid	000079-31-2	79-31-2	76

> <CAS>
000079-31-2

> <HOMO>
-11.34

> <D Path Sum F rel>
0

> <G Cl Br I>
0

> <SeaC2C2aa>
0

> <logOH_exp>
11.7

> <logOH pred>
11.64

> <HAT>
0.012

> <HAT ref>
0.07

> <Mol Id>
76

> <SMILES>
CC(C)C(O)=O

$$$$
camphene	000079-92-5	79-92-5	78
  SciTegic06061110132D

 12 13  0  0  0  0            999 V2000
    0.0000    0.0000    0.0000 C   0  0
    0.0000    0.0000    0.0000 C   0  0
    0.0000    0.0000    0.0000 C   0  0
    0.0000    0.0000    0.0000 C   0  0
    0.0000    0.0000    0.0000 H   0  0
    0.0000    0.0000    0.0000 C   0  0
    0.0000    0.0000    0.0000 C   0  0
    0.0000    0.0000    0.0000 C   0  0
    0.0000    0.0000    0.0000 H   0  0
    0.0000    0.0000    0.0000 C   0  0
    0.0000    0.0000    0.0000 C   0  0
    0.0000    0.0000    0.0000 C   0  0
  1  2  1  0
  2 11  1  0
  2  3  1  0
  2  4  1  0
  4  5  1  0
  4 10  1  0
  4  6  1  0
  6  7  1  0
  7  8  1  0
  8  9  1  0
  8 10  1  0
  8 11  1  0
 11 12  2  0
M  END
> <Name>
camphene	000079-92-5	79-92-5	78

> <CAS>
000079-92-5

> <HOMO>
-9.72

> <D Path Sum F rel>
0

> <G Cl Br I>
0

> <SeaC2C2aa>
0

> <logOH_exp>
10.27

> <logOH pred>
10.53

> <HAT>
0.008

> <HAT ref>
0.07

> <Mol Id>
78

> <SMILES>
CC1(C)[C@H]2CC[C@H](C2)C1=C

$$$$
a- Pinene	000080-56-8	80-56-8	79
  SciTegic06061110132D

 12 13  0  0  0  0            999 V2000
    0.0000    0.0000    0.0000 C   0  0
    0.0000    0.0000    0.0000 C   0  0
    0.0000    0.0000    0.0000 C   0  0
    0.0000    0.0000    0.0000 C   0  0
    0.0000    0.0000    0.0000 C   0  0
    0.0000    0.0000    0.0000 H   0  0
    0.0000    0.0000    0.0000 C   0  0
    0.0000    0.0000    0.0000 C   0  0
    0.0000    0.0000    0.0000 H   0  0
    0.0000    0.0000    0.0000 C   0  0
    0.0000    0.0000    0.0000 C   0  0
    0.0000    0.0000    0.0000 C   0  0
  1  2  1  0
  2  8  1  0
  2  3  2  3
  3  4  1  0
  4  5  1  0
  5  6  1  0
  5 10  1  0
  5  7  1  0
  7  8  1  0
  8  9  1  0
  8 10  1  0
 10 11  1  0
 10 12  1  0
M  END
> <Name>
a- Pinene	000080-56-8	80-56-8	79

> <CAS>
000080-56-8

> <HOMO>
-9.12

> <D Path Sum F rel>
0

> <G Cl Br I>
0

> <SeaC2C2aa>
0

> <logOH_exp>
10.26

> <logOH pred>
10.12

> <HAT>
0.014

> <HAT ref>
0.07

> <Mol Id>
79

> <SMILES>
CC1=CC[C@H]2C[C@@H]1C2(C)C

$$$$
acenaphthene	000083-32-9	83-32-9	80
  SciTegic06061110132D

 12 14  0  0  0  0            999 V2000
    0.0000    0.0000    0.0000 C   0  0
    0.0000    0.0000    0.0000 C   0  0
    0.0000    0.0000    0.0000 C   0  0
    0.0000    0.0000    0.0000 C   0  0
    0.0000    0.0000    0.0000 C   0  0
    0.0000    0.0000    0.0000 C   0  0
    0.0000    0.0000    0.0000 C   0  0
    0.0000    0.0000    0.0000 C   0  0
    0.0000    0.0000    0.0000 C   0  0
    0.0000    0.0000    0.0000 C   0  0
    0.0000    0.0000    0.0000 C   0  0
    0.0000    0.0000    0.0000 C   0  0
  1  9  1  0
  1  2  1  0
  2  3  1  0
  3  8  1  0
  3  4  2  3
  4  5  1  0
  5  6  2  3
  6  7  1  0
  7 12  1  0
  7  8  2  3
  8  9  1  0
  9 10  2  3
 10 11  1  0
 11 12  2  3
M  END
> <Name>
acenaphthene	000083-32-9	83-32-9	80

> <CAS>
000083-32-9

> <HOMO>
-8.49

> <D Path Sum F rel>
0

> <G Cl Br I>
0

> <SeaC2C2aa>
12.76909

> <logOH_exp>
9.99

> <logOH pred>
10.41

> <HAT>
0.026

> <HAT ref>
0.07

> <Mol Id>
80

> <SMILES>
C1CC2=CC=CC3=C2C1=CC=C3

$$$$
phenanthrene	000085-01-8	85-01-8	81
  SciTegic06061110132D

 14 16  0  0  0  0            999 V2000
    0.0000    0.0000    0.0000 C   0  0
    0.0000    0.0000    0.0000 C   0  0
    0.0000    0.0000    0.0000 C   0  0
    0.0000    0.0000    0.0000 C   0  0
    0.0000    0.0000    0.0000 C   0  0
    0.0000    0.0000    0.0000 C   0  0
    0.0000    0.0000    0.0000 C   0  0
    0.0000    0.0000    0.0000 C   0  0
    0.0000    0.0000    0.0000 C   0  0
    0.0000    0.0000    0.0000 C   0  0
    0.0000    0.0000    0.0000 C   0  0
    0.0000    0.0000    0.0000 C   0  0
    0.0000    0.0000    0.0000 C   0  0
    0.0000    0.0000    0.0000 C   0  0
  1  6  1  0
  1  2  2  3
  2  3  1  0
  3 14  1  0
  3  4  2  3
  4  5  1  0
  4  7  1  0
  5  6  2  3
  7 12  1  0
  7  8  2  3
  8  9  1  0
  8 13  1  0
  9 10  2  3
 10 11  1  0
 11 12  2  3
 13 14  2  3
M  END
> <Name>
phenanthrene	000085-01-8	85-01-8	81

> <CAS>
000085-01-8

> <HOMO>
-8.62

> <D Path Sum F rel>
0

> <G Cl Br I>
0

> <SeaC2C2aa>
21.21273

> <logOH_exp>
10.47

> <logOH pred>
10.98

> <HAT>
0.07

> <HAT ref>
0.07

> <Mol Id>
81

> <SMILES>
C1=CC2=C(C=C1)C1=C(C=CC=C1)C=C2

$$$$
fluorene	000086-73-7	86-73-7	83
  SciTegic06061110132D

 13 15  0  0  0  0            999 V2000
    0.0000    0.0000    0.0000 C   0  0
    0.0000    0.0000    0.0000 C   0  0
    0.0000    0.0000    0.0000 C   0  0
    0.0000    0.0000    0.0000 C   0  0
    0.0000    0.0000    0.0000 C   0  0
    0.0000    0.0000    0.0000 C   0  0
    0.0000    0.0000    0.0000 C   0  0
    0.0000    0.0000    0.0000 C   0  0
    0.0000    0.0000    0.0000 C   0  0
    0.0000    0.0000    0.0000 C   0  0
    0.0000    0.0000    0.0000 C   0  0
    0.0000    0.0000    0.0000 C   0  0
    0.0000    0.0000    0.0000 C   0  0
  1  9  1  0
  1  2  1  0
  2  7  1  0
  2  3  2  3
  3  4  1  0
  3  8  1  0
  4  5  2  3
  5  6  1  0
  6  7  2  3
  8 13  1  0
  8  9  2  3
  9 10  1  0
 10 11  2  3
 11 12  1  0
 12 13  2  3
M  END
> <Name>
fluorene	000086-73-7	86-73-7	83

> <CAS>
000086-73-7

> <HOMO>
-8.71

> <D Path Sum F rel>
0

> <G Cl Br I>
0

> <SeaC2C2aa>
18.62672

> <logOH_exp>
10.89

> <logOH pred>
10.89

> <HAT>
0.053

> <HAT ref>
0.07

> <Mol Id>
83

> <SMILES>
C1C2=C(C=CC=C2)C2=C1C=CC=C2

$$$$
o-nitrophenol	000088-75-5	88-75-5	85
  SciTegic06061110132D

 10 10  0  0  0  0            999 V2000
    0.0000    0.0000    0.0000 O   0  0
    0.0000    0.0000    0.0000 N   0  0
    0.0000    0.0000    0.0000 O   0  0
    0.0000    0.0000    0.0000 C   0  0
    0.0000    0.0000    0.0000 C   0  0
    0.0000    0.0000    0.0000 C   0  0
    0.0000    0.0000    0.0000 C   0  0
    0.0000    0.0000    0.0000 C   0  0
    0.0000    0.0000    0.0000 C   0  0
    0.0000    0.0000    0.0000 O   0  0
  1  2  1  0
  2  3  1  0
  2  4  1  0
  4  9  1  0
  4  5  2  3
  5  6  1  0
  6  7  2  3
  7  8  1  0
  8  9  2  3
  9 10  1  0
M  END
> <Name>
o-nitrophenol	000088-75-5	88-75-5	85

> <CAS>
000088-75-5

> <HOMO>
-9.95

> <D Path Sum F rel>
0

> <G Cl Br I>
0

> <SeaC2C2aa>
7.021181

> <logOH_exp>
12.05

> <logOH pred>
11.09

> <HAT>
0.01

> <HAT ref>
0.07

> <Mol Id>
85

> <SMILES>
ON(O)C1=CC=CC=C1O

$$$$
2-methylnaphthalene	000091-57-6	91-57-6	88
  SciTegic06061110132D

 11 12  0  0  0  0            999 V2000
    0.0000    0.0000    0.0000 C   0  0
    0.0000    0.0000    0.0000 C   0  0
    0.0000    0.0000    0.0000 C   0  0
    0.0000    0.0000    0.0000 C   0  0
    0.0000    0.0000    0.0000 C   0  0
    0.0000    0.0000    0.0000 C   0  0
    0.0000    0.0000    0.0000 C   0  0
    0.0000    0.0000    0.0000 C   0  0
    0.0000    0.0000    0.0000 C   0  0
    0.0000    0.0000    0.0000 C   0  0
    0.0000    0.0000    0.0000 C   0  0
  1  2  1  0
  2 11  1  0
  2  3  2  3
  3  4  1  0
  4  9  1  0
  4  5  2  3
  5  6  1  0
  5 10  1  0
  6  7  2  3
  7  8  1  0
  8  9  2  3
 10 11  2  3
M  END
> <Name>
2-methylnaphthalene	000091-57-6	91-57-6	88

> <CAS>
000091-57-6

> <HOMO>
-8.62

> <D Path Sum F rel>
0

> <G Cl Br I>
0

> <SeaC2C2aa>
12.1621

> <logOH_exp>
10.28

> <logOH pred>
10.46

> <HAT>
0.023

> <HAT ref>
0.07

> <Mol Id>
88

> <SMILES>
CC1=CC2=C(C=CC=C2)C=C1

$$$$
biphenyl	000092-52-4	92-52-4	89
  SciTegic06061110132D

 12 13  0  0  0  0            999 V2000
    0.0000    0.0000    0.0000 C   0  0
    0.0000    0.0000    0.0000 C   0  0
    0.0000    0.0000    0.0000 C   0  0
    0.0000    0.0000    0.0000 C   0  0
    0.0000    0.0000    0.0000 C   0  0
    0.0000    0.0000    0.0000 C   0  0
    0.0000    0.0000    0.0000 C   0  0
    0.0000    0.0000    0.0000 C   0  0
    0.0000    0.0000    0.0000 C   0  0
    0.0000    0.0000    0.0000 C   0  0
    0.0000    0.0000    0.0000 C   0  0
    0.0000    0.0000    0.0000 C   0  0
  1  6  1  0
  1  2  2  3
  2  3  1  0
  3  4  2  3
  4  5  1  0
  4  7  1  0
  5  6  2  3
  7 12  1  0
  7  8  2  3
  8  9  1  0
  9 10  2  3
 10 11  1  0
 11 12  2  3
M  END
> <Name>
biphenyl	000092-52-4	92-52-4	89

> <CAS>
000092-52-4

> <HOMO>
-9.06

> <D Path Sum F rel>
0

> <G Cl Br I>
0

> <SeaC2C2aa>
23.89256

> <logOH_exp>
11.08

> <logOH pred>
11.43

> <HAT>
0.097*

> <HAT ref>
0.07

> <Mol Id>
89

> <SMILES>
C1=CC=C(C=C1)C1=CC=CC=C1

$$$$
"1,2-dimethylbenzene"	000095-47-6	95-47-6	90
  SciTegic06061110132D

  8  8  0  0  0  0            999 V2000
    0.0000    0.0000    0.0000 C   0  0
    0.0000    0.0000    0.0000 C   0  0
    0.0000    0.0000    0.0000 C   0  0
    0.0000    0.0000    0.0000 C   0  0
    0.0000    0.0000    0.0000 C   0  0
    0.0000    0.0000    0.0000 C   0  0
    0.0000    0.0000    0.0000 C   0  0
    0.0000    0.0000    0.0000 C   0  0
  1  2  1  0
  2  7  1  0
  2  3  2  3
  3  4  1  0
  4  5  2  3
  5  6  1  0
  6  7  2  3
  7  8  1  0
M  END
> <Name>
"1,2-dimethylbenzene"	000095-47-6	95-47-6	90

> <CAS>
000095-47-6

> <HOMO>
-9.17

> <D Path Sum F rel>
0

> <G Cl Br I>
0

> <SeaC2C2aa>
9.252014

> <logOH_exp>
10.91

> <logOH pred>
10.68

> <HAT>
0.014

> <HAT ref>
0.07

> <Mol Id>
90

> <SMILES>
CC1=CC=CC=C1C

$$$$
o-cresol	000095-48-7	95-48-7	91
  SciTegic06061110132D

  8  8  0  0  0  0            999 V2000
    0.0000    0.0000    0.0000 C   0  0
    0.0000    0.0000    0.0000 C   0  0
    0.0000    0.0000    0.0000 C   0  0
    0.0000    0.0000    0.0000 O   0  0
    0.0000    0.0000    0.0000 C   0  0
    0.0000    0.0000    0.0000 C   0  0
    0.0000    0.0000    0.0000 C   0  0
    0.0000    0.0000    0.0000 C   0  0
  1  2  1  0
  2  8  1  0
  2  3  2  3
  3  4  1  0
  3  5  1  0
  5  6  2  3
  6  7  1  0
  7  8  2  3
M  END
> <Name>
o-cresol	000095-48-7	95-48-7	91

> <CAS>
000095-48-7

> <HOMO>
-8.96

> <D Path Sum F rel>
0

> <G Cl Br I>
0

> <SeaC2C2aa>
8.209792

> <logOH_exp>
10.37

> <logOH pred>
10.47

> <HAT>
0.013

> <HAT ref>
0.07

> <Mol Id>
91

> <SMILES>
CC1=C(O)C=CC=C1

$$$$
"2,5-dimethylphenol"	000095-87-4	95-87-4	96
  SciTegic06061110132D

  9  9  0  0  0  0            999 V2000
    0.0000    0.0000    0.0000 C   0  0
    0.0000    0.0000    0.0000 C   0  0
    0.0000    0.0000    0.0000 C   0  0
    0.0000    0.0000    0.0000 C   0  0
    0.0000    0.0000    0.0000 O   0  0
    0.0000    0.0000    0.0000 C   0  0
    0.0000    0.0000    0.0000 C   0  0
    0.0000    0.0000    0.0000 C   0  0
    0.0000    0.0000    0.0000 C   0  0
  1  2  1  0
  2  9  1  0
  2  3  2  3
  3  4  1  0
  4  5  1  0
  4  6  2  3
  6  7  1  0
  6  8  1  0
  8  9  2  3
M  END
> <Name>
"2,5-dimethylphenol"	000095-87-4	95-87-4	96

> <CAS>
000095-87-4

> <HOMO>
-8.83

> <D Path Sum F rel>
0

> <G Cl Br I>
0

> <SeaC2C2aa>
2.972448

> <logOH_exp>
10.1

> <logOH pred>
10.09

> <HAT>
0.013

> <HAT ref>
0.07

> <Mol Id>
96

> <SMILES>
CC1=CC(O)=C(C)C=C1

$$$$
3-methylpentane	000096-14-0	96-14-0	97
  SciTegic06061110132D

  6  5  0  0  0  0            999 V2000
    0.0000    0.0000    0.0000 C   0  0
    0.0000    0.0000    0.0000 C   0  0
    0.0000    0.0000    0.0000 C   0  0
    0.0000    0.0000    0.0000 C   0  0
    0.0000    0.0000    0.0000 C   0  0
    0.0000    0.0000    0.0000 C   0  0
  1  2  1  0
  2  3  1  0
  3  4  1  0
  3  5  1  0
  5  6  1  0
M  END
> <Name>
3-methylpentane	000096-14-0	96-14-0	97

> <CAS>
000096-14-0

> <HOMO>
-11.21

> <D Path Sum F rel>
0

> <G Cl Br I>
0

> <SeaC2C2aa>
0

> <logOH_exp>
11.25

> <logOH pred>
11.55

> <HAT>
0.011

> <HAT ref>
0.07

> <Mol Id>
97

> <SMILES>
CCC(C)CC

$$$$
"1,2,3-trichloropropane"	000096-18-4	96-18-4	98
  SciTegic06061110132D

  6  5  0  0  0  0            999 V2000
    0.0000    0.0000    0.0000 Cl  0  0
    0.0000    0.0000    0.0000 C   0  0
    0.0000    0.0000    0.0000 C   0  0
    0.0000    0.0000    0.0000 Cl  0  0
    0.0000    0.0000    0.0000 C   0  0
    0.0000    0.0000    0.0000 Cl  0  0
  1  2  1  0
  2  3  1  0
  3  4  1  0
  3  5  1  0
  5  6  1  0
M  END
> <Name>
"1,2,3-trichloropropane"	000096-18-4	96-18-4	98

> <CAS>
000096-18-4

> <HOMO>
-11.37

> <D Path Sum F rel>
0

> <G Cl Br I>
3

> <SeaC2C2aa>
0

> <logOH_exp>
12.37

> <logOH pred>
13.1

> <HAT>
0.1*

> <HAT ref>
0.07

> <Mol Id>
98

> <SMILES>
ClCC(Cl)CCl

$$$$
cyclopentanol	000096-41-3	96-41-3	100
  SciTegic06061110132D

  6  6  0  0  0  0            999 V2000
    0.0000    0.0000    0.0000 O   0  0
    0.0000    0.0000    0.0000 C   0  0
    0.0000    0.0000    0.0000 C   0  0
    0.0000    0.0000    0.0000 C   0  0
    0.0000    0.0000    0.0000 C   0  0
    0.0000    0.0000    0.0000 C   0  0
  1  2  1  0
  2  6  1  0
  2  3  1  0
  3  4  1  0
  4  5  1  0
  5  6  1  0
M  END
> <Name>
cyclopentanol	000096-41-3	96-41-3	100

> <CAS>
000096-41-3

> <HOMO>
-10.8

> <D Path Sum F rel>
0

> <G Cl Br I>
0

> <SeaC2C2aa>
0

> <logOH_exp>
10.97

> <logOH pred>
11.27

> <HAT>
0.007

> <HAT ref>
0.07

> <Mol Id>
100

> <SMILES>
OC1CCCC1

$$$$
t-butylbenzene	000098-06-6	98-06-6	101
  SciTegic06061110132D

 10 10  0  0  0  0            999 V2000
    0.0000    0.0000    0.0000 C   0  0
    0.0000    0.0000    0.0000 C   0  0
    0.0000    0.0000    0.0000 C   0  0
    0.0000    0.0000    0.0000 C   0  0
    0.0000    0.0000    0.0000 C   0  0
    0.0000    0.0000    0.0000 C   0  0
    0.0000    0.0000    0.0000 C   0  0
    0.0000    0.0000    0.0000 C   0  0
    0.0000    0.0000    0.0000 C   0  0
    0.0000    0.0000    0.0000 C   0  0
  1  2  1  0
  2  3  1  0
  2  4  1  0
  2  5  1  0
  5 10  1  0
  5  6  2  3
  6  7  1  0
  7  8  2  3
  8  9  1  0
  9 10  2  3
M  END
> <Name>
t-butylbenzene	000098-06-6	98-06-6	101

> <CAS>
000098-06-6

> <HOMO>
-9.36

> <D Path Sum F rel>
0

> <G Cl Br I>
0

> <SeaC2C2aa>
12.86499

> <logOH_exp>
11.34

> <logOH pred>
11.01

> <HAT>
0.026

> <HAT ref>
0.07

> <Mol Id>
101

> <SMILES>
CC(C)(C)C1=CC=CC=C1

$$$$
benzotrifluoride	000098-08-8	98-08-8	102
  SciTegic06061110132D

 10 10  0  0  0  0            999 V2000
    0.0000    0.0000    0.0000 F   0  0
    0.0000    0.0000    0.0000 C   0  0
    0.0000    0.0000    0.0000 F   0  0
    0.0000    0.0000    0.0000 F   0  0
    0.0000    0.0000    0.0000 C   0  0
    0.0000    0.0000    0.0000 C   0  0
    0.0000    0.0000    0.0000 C   0  0
    0.0000    0.0000    0.0000 C   0  0
    0.0000    0.0000    0.0000 C   0  0
    0.0000    0.0000    0.0000 C   0  0
  1  2  1  0
  2  3  1  0
  2  4  1  0
  2  5  1  0
  5 10  1  0
  5  6  2  3
  6  7  1  0
  7  8  2  3
  8  9  1  0
  9 10  2  3
M  END
> <Name>
benzotrifluoride	000098-08-8	98-08-8	102

> <CAS>
000098-08-8

> <HOMO>
-10.25

> <D Path Sum F rel>
0.6842105

> <G Cl Br I>
0

> <SeaC2C2aa>
9.799989

> <logOH_exp>
12.34

> <logOH pred>
12.34

> <HAT>
0.049

> <HAT ref>
0.07

> <Mol Id>
102

> <SMILES>
FC(F)(F)C1=CC=CC=C1

$$$$
4-chlorobenzotrifluoride	000098-56-6	98-56-6	103
  SciTegic06061110132D

 11 11  0  0  0  0            999 V2000
    0.0000    0.0000    0.0000 F   0  0
    0.0000    0.0000    0.0000 C   0  0
    0.0000    0.0000    0.0000 F   0  0
    0.0000    0.0000    0.0000 F   0  0
    0.0000    0.0000    0.0000 C   0  0
    0.0000    0.0000    0.0000 C   0  0
    0.0000    0.0000    0.0000 C   0  0
    0.0000    0.0000    0.0000 C   0  0
    0.0000    0.0000    0.0000 Cl  0  0
    0.0000    0.0000    0.0000 C   0  0
    0.0000    0.0000    0.0000 C   0  0
  1  2  1  0
  2  3  1  0
  2  4  1  0
  2  5  1  0
  5 11  1  0
  5  6  2  3
  6  7  1  0
  7  8  2  3
  8  9  1  0
  8 10  1  0
 10 11  2  3
M  END
> <Name>
4-chlorobenzotrifluoride	000098-56-6	98-56-6	103

> <CAS>
000098-56-6

> <HOMO>
-10.21

> <D Path Sum F rel>
0.6315789

> <G Cl Br I>
1

> <SeaC2C2aa>
4.429205

> <logOH_exp>
12.62

> <logOH pred>
12.42

> <HAT>
0.039

> <HAT ref>
0.07

> <Mol Id>
103

> <SMILES>
FC(F)(F)C1=CC=C(Cl)C=C1

$$$$
a-methylstyrene	000098-83-9	98-83-9	105
  SciTegic06061110132D

  9  9  0  0  0  0            999 V2000
    0.0000    0.0000    0.0000 C   0  0
    0.0000    0.0000    0.0000 C   0  0
    0.0000    0.0000    0.0000 C   0  0
    0.0000    0.0000    0.0000 C   0  0
    0.0000    0.0000    0.0000 C   0  0
    0.0000    0.0000    0.0000 C   0  0
    0.0000    0.0000    0.0000 C   0  0
    0.0000    0.0000    0.0000 C   0  0
    0.0000    0.0000    0.0000 C   0  0
  1  2  1  0
  2  3  2  0
  2  4  1  0
  4  9  1  0
  4  5  2  3
  5  6  1  0
  6  7  2  3
  7  8  1  0
  8  9  2  3
M  END
> <Name>
a-methylstyrene	000098-83-9	98-83-9	105

> <CAS>
000098-83-9

> <HOMO>
-8.93

> <D Path Sum F rel>
0

> <G Cl Br I>
0

> <SeaC2C2aa>
11.85008

> <logOH_exp>
10.23

> <logOH pred>
10.66

> <HAT>
0.021

> <HAT ref>
0.07

> <Mol Id>
105

> <SMILES>
CC(=C)C1=CC=CC=C1

$$$$
m-nitrotoluene	000099-08-1	99-08-1	108
  SciTegic06061110132D

 10 10  0  0  0  0            999 V2000
    0.0000    0.0000    0.0000 C   0  0
    0.0000    0.0000    0.0000 C   0  0
    0.0000    0.0000    0.0000 C   0  0
    0.0000    0.0000    0.0000 C   0  0
    0.0000    0.0000    0.0000 C   0  0
    0.0000    0.0000    0.0000 C   0  0
    0.0000    0.0000    0.0000 C   0  0
    0.0000    0.0000    0.0000 N   0  0
    0.0000    0.0000    0.0000 O   0  0
    0.0000    0.0000    0.0000 O   0  0
  1  2  1  0
  2  7  1  0
  2  3  2  3
  3  4  1  0
  4  5  2  3
  4  8  1  0
  5  6  1  0
  6  7  2  3
  8  9  1  0
  8 10  1  0
M  END
> <Name>
m-nitrotoluene	000099-08-1	99-08-1	108

> <CAS>
000099-08-1

> <HOMO>
-10.2

> <D Path Sum F rel>
0

> <G Cl Br I>
0

> <SeaC2C2aa>
5.351655

> <logOH_exp>
12.02

> <logOH pred>
11.16

> <HAT>
0.008

> <HAT ref>
0.07

> <Mol Id>
108

> <SMILES>
CC1=CC(=CC=C1)N(O)O

$$$$
p-menthane	000099-82-1	99-82-1	109
  SciTegic06061110132D

 10 10  0  0  0  0            999 V2000
    0.0000    0.0000    0.0000 C   0  0
    0.0000    0.0000    0.0000 C   0  0
    0.0000    0.0000    0.0000 C   0  0
    0.0000    0.0000    0.0000 C   0  0
    0.0000    0.0000    0.0000 C   0  0
    0.0000    0.0000    0.0000 C   0  0
    0.0000    0.0000    0.0000 C   0  0
    0.0000    0.0000    0.0000 C   0  0
    0.0000    0.0000    0.0000 C   0  0
    0.0000    0.0000    0.0000 C   0  0
  1  2  1  0
  2  3  1  0
  2  4  1  0
  4 10  1  0
  4  5  1  0
  5  6  1  0
  6  7  1  0
  7  8  1  0
  7  9  1  0
  9 10  1  0
M  END
> <Name>
p-menthane	000099-82-1	99-82-1	109

> <CAS>
000099-82-1

> <HOMO>
-10.63

> <D Path Sum F rel>
0

> <G Cl Br I>
0

> <SeaC2C2aa>
0

> <logOH_exp>
11.18

> <logOH pred>
11.15

> <HAT>
0.007

> <HAT ref>
0.07

> <Mol Id>
109

> <SMILES>
CC(C)C1CCC(C)CC1

$$$$
a - phellandrene	000099-83-2	99-83-2	110
  SciTegic06061110132D

 10 10  0  0  0  0            999 V2000
    0.0000    0.0000    0.0000 C   0  0
    0.0000    0.0000    0.0000 C   0  0
    0.0000    0.0000    0.0000 C   0  0
    0.0000    0.0000    0.0000 C   0  0
    0.0000    0.0000    0.0000 C   0  0
    0.0000    0.0000    0.0000 C   0  0
    0.0000    0.0000    0.0000 C   0  0
    0.0000    0.0000    0.0000 C   0  0
    0.0000    0.0000    0.0000 C   0  0
    0.0000    0.0000    0.0000 C   0  0
  1  2  1  0
  2  3  1  0
  2  4  1  0
  4 10  1  0
  4  5  1  0
  5  6  1  0
  6  7  2  3
  7  8  1  0
  7  9  1  0
  9 10  2  3
M  END
> <Name>
a - phellandrene	000099-83-2	99-83-2	110

> <CAS>
000099-83-2

> <HOMO>
-8.66

> <D Path Sum F rel>
0

> <G Cl Br I>
0

> <SeaC2C2aa>
0

> <logOH_exp>
9.5

> <logOH pred>
9.8

> <HAT>
0.022

> <HAT ref>
0.07

> <Mol Id>
110

> <SMILES>
CC(C)C1CC=C(C)C=C1

$$$$
a - terpinene	000099-86-5	99-86-5	112
  SciTegic06061110132D

 10 10  0  0  0  0            999 V2000
    0.0000    0.0000    0.0000 C   0  0
    0.0000    0.0000    0.0000 C   0  0
    0.0000    0.0000    0.0000 C   0  0
    0.0000    0.0000    0.0000 C   0  0
    0.0000    0.0000    0.0000 C   0  0
    0.0000    0.0000    0.0000 C   0  0
    0.0000    0.0000    0.0000 C   0  0
    0.0000    0.0000    0.0000 C   0  0
    0.0000    0.0000    0.0000 C   0  0
    0.0000    0.0000    0.0000 C   0  0
  1  2  1  0
  2  3  1  0
  2  4  1  0
  4 10  1  0
  4  5  2  3
  5  6  1  0
  6  7  2  3
  7  8  1  0
  7  9  1  0
  9 10  1  0
M  END
> <Name>
a - terpinene	000099-86-5	99-86-5	112

> <CAS>
000099-86-5

> <HOMO>
-8.44

> <D Path Sum F rel>
0

> <G Cl Br I>
0

> <SeaC2C2aa>
0

> <logOH_exp>
9.44

> <logOH pred>
9.65

> <HAT>
0.027

> <HAT ref>
0.07

> <Mol Id>
112

> <SMILES>
CC(C)C1=CC=C(C)CC1

$$$$
ethylbenzene	000100-41-4	100-41-4	115
  SciTegic06061110132D

  8  8  0  0  0  0            999 V2000
    0.0000    0.0000    0.0000 C   0  0
    0.0000    0.0000    0.0000 C   0  0
    0.0000    0.0000    0.0000 C   0  0
    0.0000    0.0000    0.0000 C   0  0
    0.0000    0.0000    0.0000 C   0  0
    0.0000    0.0000    0.0000 C   0  0
    0.0000    0.0000    0.0000 C   0  0
    0.0000    0.0000    0.0000 C   0  0
  1  2  1  0
  2  3  1  0
  3  8  1  0
  3  4  2  3
  4  5  1  0
  5  6  2  3
  6  7  1  0
  7  8  2  3
M  END
> <Name>
ethylbenzene	000100-41-4	100-41-4	115

> <CAS>
000100-41-4

> <HOMO>
-9.38

> <D Path Sum F rel>
0

> <G Cl Br I>
0

> <SeaC2C2aa>
12.34138

> <logOH_exp>
11.1

> <logOH pred>
11

> <HAT>
0.023

> <HAT ref>
0.07

> <Mol Id>
115

> <SMILES>
CCC1=CC=CC=C1

$$$$
benzyl alcohol	000100-51-6	100-51-6	119
  SciTegic06061110132D

  8  8  0  0  0  0            999 V2000
    0.0000    0.0000    0.0000 O   0  0
    0.0000    0.0000    0.0000 C   0  0
    0.0000    0.0000    0.0000 C   0  0
    0.0000    0.0000    0.0000 C   0  0
    0.0000    0.0000    0.0000 C   0  0
    0.0000    0.0000    0.0000 C   0  0
    0.0000    0.0000    0.0000 C   0  0
    0.0000    0.0000    0.0000 C   0  0
  1  2  1  0
  2  3  1  0
  3  8  1  0
  3  4  2  3
  4  5  1  0
  5  6  2  3
  6  7  1  0
  7  8  2  3
M  END
> <Name>
benzyl alcohol	000100-51-6	100-51-6	119

> <CAS>
000100-51-6

> <HOMO>
-9.36

> <D Path Sum F rel>
0

> <G Cl Br I>
0

> <SeaC2C2aa>
11.38916

> <logOH_exp>
10.64

> <logOH pred>
10.93

> <HAT>
0.02

> <HAT ref>
0.07

> <Mol Id>
119

> <SMILES>
OCC1=CC=CC=C1

$$$$
benzaldehyde	000100-52-7	100-52-7	120
  SciTegic06061110132D

  8  8  0  0  0  0            999 V2000
    0.0000    0.0000    0.0000 O   0  0
    0.0000    0.0000    0.0000 C   0  0
    0.0000    0.0000    0.0000 C   0  0
    0.0000    0.0000    0.0000 C   0  0
    0.0000    0.0000    0.0000 C   0  0
    0.0000    0.0000    0.0000 C   0  0
    0.0000    0.0000    0.0000 C   0  0
    0.0000    0.0000    0.0000 C   0  0
  1  2  2  0
  2  3  1  0
  3  8  1  0
  3  4  2  3
  4  5  1  0
  5  6  2  3
  6  7  1  0
  7  8  2  3
M  END
> <Name>
benzaldehyde	000100-52-7	100-52-7	120

> <CAS>
000100-52-7

> <HOMO>
-10

> <D Path Sum F rel>
0

> <G Cl Br I>
0

> <SeaC2C2aa>
10.97666

> <logOH_exp>
10.93

> <logOH pred>
11.35

> <HAT>
0.022

> <HAT ref>
0.07

> <Mol Id>
120

> <SMILES>
O=CC1=CC=CC=C1

$$$$
propylbenzene	000103-65-1	103-65-1	122
  SciTegic06061110132D

  9  9  0  0  0  0            999 V2000
    0.0000    0.0000    0.0000 C   0  0
    0.0000    0.0000    0.0000 C   0  0
    0.0000    0.0000    0.0000 C   0  0
    0.0000    0.0000    0.0000 C   0  0
    0.0000    0.0000    0.0000 C   0  0
    0.0000    0.0000    0.0000 C   0  0
    0.0000    0.0000    0.0000 C   0  0
    0.0000    0.0000    0.0000 C   0  0
    0.0000    0.0000    0.0000 C   0  0
  1  2  1  0
  2  3  1  0
  3  4  1  0
  4  9  1  0
  4  5  2  3
  5  6  1  0
  6  7  2  3
  7  8  1  0
  8  9  2  3
M  END
> <Name>
propylbenzene	000103-65-1	103-65-1	122

> <CAS>
000103-65-1

> <HOMO>
-9.37

> <D Path Sum F rel>
0

> <G Cl Br I>
0

> <SeaC2C2aa>
12.64785

> <logOH_exp>
11.22

> <logOH pred>
11.01

> <HAT>
0.025

> <HAT ref>
0.07

> <Mol Id>
122

> <SMILES>
CCCC1=CC=CC=C1

$$$$
2-butylacetate	000105-46-4	105-46-4	124
  SciTegic06061110132D

  9  8  0  0  0  0            999 V2000
    0.0000    0.0000    0.0000 C   0  0
    0.0000    0.0000    0.0000 C   0  0
    0.0000    0.0000    0.0000 C   0  0
    0.0000    0.0000    0.0000 H   0  0
    0.0000    0.0000    0.0000 C   0  0
    0.0000    0.0000    0.0000 O   0  0
    0.0000    0.0000    0.0000 C   0  0
    0.0000    0.0000    0.0000 C   0  0
    0.0000    0.0000    0.0000 O   0  0
  1  2  1  0
  2  3  1  0
  3  4  1  0
  3  5  1  0
  3  6  1  0
  6  7  1  0
  7  8  1  0
  7  9  2  0
M  END
> <Name>
2-butylacetate	000105-46-4	105-46-4	124

> <CAS>
000105-46-4

> <HOMO>
-11.13

> <D Path Sum F rel>
0

> <G Cl Br I>
0

> <SeaC2C2aa>
0

> <logOH_exp>
11.27

> <logOH pred>
11.5

> <HAT>
0.01

> <HAT ref>
0.07

> <Mol Id>
124

> <SMILES>
CC[C@@H](C)OC(C)=O

$$$$
ethyl butyrate	000105-54-4	105-54-4	125
  SciTegic06061110132D

  8  7  0  0  0  0            999 V2000
    0.0000    0.0000    0.0000 C   0  0
    0.0000    0.0000    0.0000 C   0  0
    0.0000    0.0000    0.0000 C   0  0
    0.0000    0.0000    0.0000 C   0  0
    0.0000    0.0000    0.0000 O   0  0
    0.0000    0.0000    0.0000 O   0  0
    0.0000    0.0000    0.0000 C   0  0
    0.0000    0.0000    0.0000 C   0  0
  1  2  1  0
  2  3  1  0
  3  4  1  0
  4  5  2  0
  4  6  1  0
  6  7  1  0
  7  8  1  0
M  END
> <Name>
ethyl butyrate	000105-54-4	105-54-4	125

> <CAS>
000105-54-4

> <HOMO>
-11.21

> <D Path Sum F rel>
0

> <G Cl Br I>
0

> <SeaC2C2aa>
0

> <logOH_exp>
11.31

> <logOH pred>
11.55

> <HAT>
0.011

> <HAT ref>
0.07

> <Mol Id>
125

> <SMILES>
CCCC(=O)OCC

$$$$
p-dichlorobenzene	000106-46-7	106-46-7	131
  SciTegic06061110132D

  8  8  0  0  0  0            999 V2000
    0.0000    0.0000    0.0000 Cl  0  0
    0.0000    0.0000    0.0000 C   0  0
    0.0000    0.0000    0.0000 C   0  0
    0.0000    0.0000    0.0000 C   0  0
    0.0000    0.0000    0.0000 C   0  0
    0.0000    0.0000    0.0000 Cl  0  0
    0.0000    0.0000    0.0000 C   0  0
    0.0000    0.0000    0.0000 C   0  0
  1  2  1  0
  2  8  1  0
  2  3  2  3
  3  4  1  0
  4  5  2  3
  5  6  1  0
  5  7  1  0
  7  8  2  3
M  END
> <Name>
p-dichlorobenzene	000106-46-7	106-46-7	131

> <CAS>
000106-46-7

> <HOMO>
-9.52

> <D Path Sum F rel>
0

> <G Cl Br I>
2

> <SeaC2C2aa>
5.095679

> <logOH_exp>
12.5

> <logOH pred>
11.64

> <HAT>
0.049

> <HAT ref>
0.07

> <Mol Id>
131

> <SMILES>
ClC1=CC=C(Cl)C=C1

$$$$
p-chloroaniline	000106-47-8	106-47-8	132
  SciTegic06061110132D

  8  8  0  0  0  0            999 V2000
    0.0000    0.0000    0.0000 N   0  0
    0.0000    0.0000    0.0000 C   0  0
    0.0000    0.0000    0.0000 C   0  0
    0.0000    0.0000    0.0000 C   0  0
    0.0000    0.0000    0.0000 C   0  0
    0.0000    0.0000    0.0000 Cl  0  0
    0.0000    0.0000    0.0000 C   0  0
    0.0000    0.0000    0.0000 C   0  0
  1  2  1  0
  2  8  1  0
  2  3  2  3
  3  4  1  0
  4  5  2  3
  5  6  1  0
  5  7  1  0
  7  8  2  3
M  END
> <Name>
p-chloroaniline	000106-47-8	106-47-8	132

> <CAS>
000106-47-8

> <HOMO>
-8.31

> <D Path Sum F rel>
0

> <G Cl Br I>
1

> <SeaC2C2aa>
5.108025

> <logOH_exp>
10.08

> <logOH pred>
10.33

> <HAT>
0.032

> <HAT ref>
0.07

> <Mol Id>
132

> <SMILES>
NC1=CC=C(Cl)C=C1

$$$$
"1,2-epoxybutane"	000106-88-7	106-88-7	133
  SciTegic06061110132D

  6  6  0  0  0  0            999 V2000
    0.0000    0.0000    0.0000 C   0  0
    0.0000    0.0000    0.0000 C   0  0
    0.0000    0.0000    0.0000 C   0  0
    0.0000    0.0000    0.0000 H   0  0
    0.0000    0.0000    0.0000 C   0  0
    0.0000    0.0000    0.0000 O   0  0
  1  2  1  0
  2  3  1  0
  3  4  1  0
  3  6  1  0
  3  5  1  0
  5  6  1  0
M  END
> <Name>
"1,2-epoxybutane"	000106-88-7	106-88-7	133

> <CAS>
000106-88-7

> <HOMO>
-11.18

> <D Path Sum F rel>
0

> <G Cl Br I>
0

> <SeaC2C2aa>
0

> <logOH_exp>
11.68

> <logOH pred>
11.53

> <HAT>
0.011

> <HAT ref>
0.07

> <Mol Id>
133

> <SMILES>
CC[C@H]1CO1

$$$$
"1-chloro-2,3-epoxypropane"	000106-89-8	106-89-8	134
  SciTegic06061110132D

  6  6  0  0  0  0            999 V2000
    0.0000    0.0000    0.0000 Cl  0  0
    0.0000    0.0000    0.0000 C   0  0
    0.0000    0.0000    0.0000 C   0  0
    0.0000    0.0000    0.0000 H   0  0
    0.0000    0.0000    0.0000 C   0  0
    0.0000    0.0000    0.0000 O   0  0
  1  2  1  0
  2  3  1  0
  3  4  1  0
  3  6  1  0
  3  5  1  0
  5  6  1  0
M  END
> <Name>
"1-chloro-2,3-epoxypropane"	000106-89-8	106-89-8	134

> <CAS>
000106-89-8

> <HOMO>
-11.37

> <D Path Sum F rel>
0

> <G Cl Br I>
1

> <SeaC2C2aa>
0

> <logOH_exp>
12.36

> <logOH pred>
12.14

> <HAT>
0.018

> <HAT ref>
0.07

> <Mol Id>
134

> <SMILES>
ClC[C@H]1CO1

$$$$
"1,2-dibromoethane"	000106-93-4	106-93-4	135
  SciTegic06061110132D

  4  3  0  0  0  0            999 V2000
    0.0000    0.0000    0.0000 Br  0  0
    0.0000    0.0000    0.0000 C   0  0
    0.0000    0.0000    0.0000 C   0  0
    0.0000    0.0000    0.0000 Br  0  0
  1  2  1  0
  2  3  1  0
  3  4  1  0
M  END
> <Name>
"1,2-dibromoethane"	000106-93-4	106-93-4	135

> <CAS>
000106-93-4

> <HOMO>
-11.01

> <D Path Sum F rel>
0

> <G Cl Br I>
2

> <SeaC2C2aa>
0

> <logOH_exp>
12.6

> <logOH pred>
12.38

> <HAT>
0.045

> <HAT ref>
0.07

> <Mol Id>
135

> <SMILES>
BrCCBr

$$$$
n-butane	000106-97-8	106-97-8	136
  SciTegic06061110132D

  4  3  0  0  0  0            999 V2000
    0.0000    0.0000    0.0000 C   0  0
    0.0000    0.0000    0.0000 C   0  0
    0.0000    0.0000    0.0000 C   0  0
    0.0000    0.0000    0.0000 C   0  0
  1  2  1  0
  2  3  1  0
  3  4  1  0
M  END
> <Name>
n-butane	000106-97-8	106-97-8	136

> <CAS>
000106-97-8

> <HOMO>
-11.17

> <D Path Sum F rel>
0

> <G Cl Br I>
0

> <SeaC2C2aa>
0

> <logOH_exp>
11.6

> <logOH pred>
11.53

> <HAT>
0.011

> <HAT ref>
0.07

> <Mol Id>
136

> <SMILES>
CCCC

$$$$
1-butene	000106-98-9	106-98-9	137
  SciTegic06061110132D

  4  3  0  0  0  0            999 V2000
    0.0000    0.0000    0.0000 C   0  0
    0.0000    0.0000    0.0000 C   0  0
    0.0000    0.0000    0.0000 C   0  0
    0.0000    0.0000    0.0000 C   0  0
  1  2  1  0
  2  3  1  0
  3  4  2  0
M  END
> <Name>
1-butene	000106-98-9	106-98-9	137

> <CAS>
000106-98-9

> <HOMO>
-10.01

> <D Path Sum F rel>
0

> <G Cl Br I>
0

> <SeaC2C2aa>
0

> <logOH_exp>
10.5

> <logOH pred>
10.73

> <HAT>
0.007

> <HAT ref>
0.07

> <Mol Id>
137

> <SMILES>
CCC=C

$$$$
1-butyne	000107-00-6	107-00-6	139
  SciTegic06061110132D

  4  3  0  0  0  0            999 V2000
    0.0000    0.0000    0.0000 C   0  0
    0.0000    0.0000    0.0000 C   0  0
    0.0000    0.0000    0.0000 C   0  0
    0.0000    0.0000    0.0000 C   0  0
  1  2  1  0
  2  3  1  0
  3  4  3  0
M  END
> <Name>
1-butyne	000107-00-6	107-00-6	139

> <CAS>
000107-00-6

> <HOMO>
-10.62

> <D Path Sum F rel>
0

> <G Cl Br I>
0

> <SeaC2C2aa>
0

> <logOH_exp>
11.09

> <logOH pred>
11.15

> <HAT>
0.007

> <HAT ref>
0.07

> <Mol Id>
139

> <SMILES>
CCC#C

$$$$
propionitrile	000107-12-0	107-12-0	145
  SciTegic06061110132D

  4  3  0  0  0  0            999 V2000
    0.0000    0.0000    0.0000 C   0  0
    0.0000    0.0000    0.0000 C   0  0
    0.0000    0.0000    0.0000 C   0  0
    0.0000    0.0000    0.0000 N   0  0
  1  2  1  0
  2  3  1  0
  3  4  3  0
M  END
> <Name>
propionitrile	000107-12-0	107-12-0	145

> <CAS>
000107-12-0

> <HOMO>
-11.99

> <D Path Sum F rel>
0

> <G Cl Br I>
0

> <SeaC2C2aa>
0

> <logOH_exp>
12.71

> <logOH pred>
12.09

> <HAT>
0.023

> <HAT ref>
0.07

> <Mol Id>
145

> <SMILES>
CCC#N

$$$$
"1,2-ethanediol"	000107-21-1	107-21-1	147
  SciTegic06061110132D

  4  3  0  0  0  0            999 V2000
    0.0000    0.0000    0.0000 O   0  0
    0.0000    0.0000    0.0000 C   0  0
    0.0000    0.0000    0.0000 C   0  0
    0.0000    0.0000    0.0000 O   0  0
  1  2  1  0
  2  3  1  0
  3  4  1  0
M  END
> <Name>
"1,2-ethanediol"	000107-21-1	107-21-1	147

> <CAS>
000107-21-1

> <HOMO>
-11

> <D Path Sum F rel>
0

> <G Cl Br I>
0

> <SeaC2C2aa>
0

> <logOH_exp>
11.11

> <logOH pred>
11.41

> <HAT>
0.009

> <HAT ref>
0.07

> <Mol Id>
147

> <SMILES>
OCCO

$$$$
methoxyethene	000107-25-5	107-25-5	149
  SciTegic06061110132D

  4  3  0  0  0  0            999 V2000
    0.0000    0.0000    0.0000 C   0  0
    0.0000    0.0000    0.0000 O   0  0
    0.0000    0.0000    0.0000 C   0  0
    0.0000    0.0000    0.0000 C   0  0
  1  2  1  0
  2  3  1  0
  3  4  2  0
M  END
> <Name>
methoxyethene	000107-25-5	107-25-5	149

> <CAS>
000107-25-5

> <HOMO>
-9.41

> <D Path Sum F rel>
0

> <G Cl Br I>
0

> <SeaC2C2aa>
0

> <logOH_exp>
10.48

> <logOH pred>
10.32

> <HAT>
0.011

> <HAT ref>
0.07

> <Mol Id>
149

> <SMILES>
COC=C

$$$$
butyric acid	000107-92-6	107-92-6	153
  SciTegic06061110132D

  6  5  0  0  0  0            999 V2000
    0.0000    0.0000    0.0000 C   0  0
    0.0000    0.0000    0.0000 C   0  0
    0.0000    0.0000    0.0000 C   0  0
    0.0000    0.0000    0.0000 C   0  0
    0.0000    0.0000    0.0000 O   0  0
    0.0000    0.0000    0.0000 O   0  0
  1  2  1  0
  2  3  1  0
  3  4  1  0
  4  5  1  0
  4  6  2  0
M  END
> <Name>
butyric acid	000107-92-6	107-92-6	153

> <CAS>
000107-92-6

> <HOMO>
-11.45

> <D Path Sum F rel>
0

> <G Cl Br I>
0

> <SeaC2C2aa>
0

> <logOH_exp>
11.62

> <logOH pred>
11.72

> <HAT>
0.014

> <HAT ref>
0.07

> <Mol Id>
153

> <SMILES>
CCCC(O)=O

$$$$
2-(dimethyl-amino)-ethanol	000108-01-0	108-01-0	154
  SciTegic06061110132D

  6  5  0  0  0  0            999 V2000
    0.0000    0.0000    0.0000 C   0  0
    0.0000    0.0000    0.0000 N   0  0
    0.0000    0.0000    0.0000 C   0  0
    0.0000    0.0000    0.0000 C   0  0
    0.0000    0.0000    0.0000 C   0  0
    0.0000    0.0000    0.0000 O   0  0
  1  2  1  0
  2  3  1  0
  2  4  1  0
  4  5  1  0
  5  6  1  0
M  END
> <Name>
2-(dimethyl-amino)-ethanol	000108-01-0	108-01-0	154

> <CAS>
000108-01-0

> <HOMO>
-9.2

> <D Path Sum F rel>
0

> <G Cl Br I>
0

> <SeaC2C2aa>
0

> <logOH_exp>
10.33

> <logOH pred>
10.17

> <HAT>
0.013

> <HAT ref>
0.07

> <Mol Id>
154

> <SMILES>
CN(C)CCO

$$$$
1-nitropropane	000108-03-2	108-03-2	155
  SciTegic06061110132D

  6  5  0  0  0  0            999 V2000
    0.0000    0.0000    0.0000 C   0  0
    0.0000    0.0000    0.0000 C   0  0
    0.0000    0.0000    0.0000 C   0  0
    0.0000    0.0000    0.0000 N   0  0
    0.0000    0.0000    0.0000 O   0  0
    0.0000    0.0000    0.0000 O   0  0
  1  2  1  0
  2  3  1  0
  3  4  1  0
  4  5  1  0
  4  6  1  0
M  END
> <Name>
1-nitropropane	000108-03-2	108-03-2	155

> <CAS>
000108-03-2

> <HOMO>
-11.73

> <D Path Sum F rel>
0

> <G Cl Br I>
0

> <SeaC2C2aa>
0

> <logOH_exp>
12.47

> <logOH pred>
11.91

> <HAT>
0.018

> <HAT ref>
0.07

> <Mol Id>
155

> <SMILES>
CCCN(O)O

$$$$
"2,4-dimethylpentane"	000108-08-7	108-08-7	156
  SciTegic06061110132D

  7  6  0  0  0  0            999 V2000
    0.0000    0.0000    0.0000 C   0  0
    0.0000    0.0000    0.0000 C   0  0
    0.0000    0.0000    0.0000 C   0  0
    0.0000    0.0000    0.0000 C   0  0
    0.0000    0.0000    0.0000 C   0  0
    0.0000    0.0000    0.0000 C   0  0
    0.0000    0.0000    0.0000 C   0  0
  1  2  1  0
  2  3  1  0
  2  4  1  0
  4  5  1  0
  5  6  1  0
  5  7  1  0
M  END
> <Name>
"2,4-dimethylpentane"	000108-08-7	108-08-7	156

> <CAS>
000108-08-7

> <HOMO>
-11.06

> <D Path Sum F rel>
0

> <G Cl Br I>
0

> <SeaC2C2aa>
0

> <logOH_exp>
11.29

> <logOH pred>
11.45

> <HAT>
0.009

> <HAT ref>
0.07

> <Mol Id>
156

> <SMILES>
CC(C)CC(C)C

$$$$
4-methyl-2-pentanone	000108-10-1	108-10-1	157
  SciTegic06061110132D

  7  6  0  0  0  0            999 V2000
    0.0000    0.0000    0.0000 C   0  0
    0.0000    0.0000    0.0000 C   0  0
    0.0000    0.0000    0.0000 C   0  0
    0.0000    0.0000    0.0000 C   0  0
    0.0000    0.0000    0.0000 C   0  0
    0.0000    0.0000    0.0000 C   0  0
    0.0000    0.0000    0.0000 O   0  0
  1  2  1  0
  2  3  1  0
  2  4  1  0
  4  5  1  0
  5  6  1  0
  5  7  2  0
M  END
> <Name>
4-methyl-2-pentanone	000108-10-1	108-10-1	157

> <CAS>
000108-10-1

> <HOMO>
-10.49

> <D Path Sum F rel>
0

> <G Cl Br I>
0

> <SeaC2C2aa>
0

> <logOH_exp>
10.85

> <logOH pred>
11.06

> <HAT>
0.006

> <HAT ref>
0.07

> <Mol Id>
157

> <SMILES>
CC(C)CC(C)=O

$$$$
4-methyl-2-pentanol	000108-11-2	108-11-2	158
  SciTegic06061110132D

  8  7  0  0  0  0            999 V2000
    0.0000    0.0000    0.0000 C   0  0
    0.0000    0.0000    0.0000 C   0  0
    0.0000    0.0000    0.0000 C   0  0
    0.0000    0.0000    0.0000 C   0  0
    0.0000    0.0000    0.0000 C   0  0
    0.0000    0.0000    0.0000 H   0  0
    0.0000    0.0000    0.0000 C   0  0
    0.0000    0.0000    0.0000 O   0  0
  1  2  1  0
  2  3  1  0
  2  4  1  0
  4  5  1  0
  5  6  1  0
  5  7  1  0
  5  8  1  0
M  END
> <Name>
4-methyl-2-pentanol	000108-11-2	108-11-2	158

> <CAS>
000108-11-2

> <HOMO>
-10.8

> <D Path Sum F rel>
0

> <G Cl Br I>
0

> <SeaC2C2aa>
0

> <logOH_exp>
12.15

> <logOH pred>
11.27

> <HAT>
0.007

> <HAT ref>
0.07

> <Mol Id>
158

> <SMILES>
CC(C)C[C@@H](C)O

$$$$
"1,3-dimethylbenzene"	000108-38-3	108-38-3	160
  SciTegic06061110132D

  8  8  0  0  0  0            999 V2000
    0.0000    0.0000    0.0000 C   0  0
    0.0000    0.0000    0.0000 C   0  0
    0.0000    0.0000    0.0000 C   0  0
    0.0000    0.0000    0.0000 C   0  0
    0.0000    0.0000    0.0000 C   0  0
    0.0000    0.0000    0.0000 C   0  0
    0.0000    0.0000    0.0000 C   0  0
    0.0000    0.0000    0.0000 C   0  0
  1  2  1  0
  2  8  1  0
  2  3  2  3
  3  4  1  0
  4  5  1  0
  4  6  2  3
  6  7  1  0
  7  8  2  3
M  END
> <Name>
"1,3-dimethylbenzene"	000108-38-3	108-38-3	160

> <CAS>
000108-38-3

> <HOMO>
-9.19

> <D Path Sum F rel>
0

> <G Cl Br I>
0

> <SeaC2C2aa>
6.204711

> <logOH_exp>
10.64

> <logOH pred>
10.52

> <HAT>
0.009

> <HAT ref>
0.07

> <Mol Id>
160

> <SMILES>
CC1=CC(C)=CC=C1

$$$$
m-cresol	000108-39-4	108-39-4	161
  SciTegic06061110132D

  8  8  0  0  0  0            999 V2000
    0.0000    0.0000    0.0000 C   0  0
    0.0000    0.0000    0.0000 C   0  0
    0.0000    0.0000    0.0000 C   0  0
    0.0000    0.0000    0.0000 C   0  0
    0.0000    0.0000    0.0000 C   0  0
    0.0000    0.0000    0.0000 C   0  0
    0.0000    0.0000    0.0000 O   0  0
    0.0000    0.0000    0.0000 C   0  0
  1  2  1  0
  2  8  1  0
  2  3  2  3
  3  4  1  0
  4  5  2  3
  5  6  1  0
  6  7  1  0
  6  8  2  3
M  END
> <Name>
m-cresol	000108-39-4	108-39-4	161

> <CAS>
000108-39-4

> <HOMO>
-9.04

> <D Path Sum F rel>
0

> <G Cl Br I>
0

> <SeaC2C2aa>
5.447489

> <logOH_exp>
10.17

> <logOH pred>
10.37

> <HAT>
0.01

> <HAT ref>
0.07

> <Mol Id>
161

> <SMILES>
CC1=CC=CC(O)=C1

$$$$
"1,3,5-trimethylbenzene"	000108-67-8	108-67-8	162
  SciTegic06061110132D

  9  9  0  0  0  0            999 V2000
    0.0000    0.0000    0.0000 C   0  0
    0.0000    0.0000    0.0000 C   0  0
    0.0000    0.0000    0.0000 C   0  0
    0.0000    0.0000    0.0000 C   0  0
    0.0000    0.0000    0.0000 C   0  0
    0.0000    0.0000    0.0000 C   0  0
    0.0000    0.0000    0.0000 C   0  0
    0.0000    0.0000    0.0000 C   0  0
    0.0000    0.0000    0.0000 C   0  0
  1  2  1  0
  2  9  1  0
  2  3  2  3
  3  4  1  0
  4  5  1  0
  4  6  2  3
  6  7  1  0
  7  8  1  0
  7  9  2  3
M  END
> <Name>
"1,3,5-trimethylbenzene"	000108-67-8	108-67-8	162

> <CAS>
000108-67-8

> <HOMO>
-9.15

> <D Path Sum F rel>
0

> <G Cl Br I>
0

> <SeaC2C2aa>
0

> <logOH_exp>
10.24

> <logOH pred>
10.14

> <HAT>
0.014

> <HAT ref>
0.07

> <Mol Id>
162

> <SMILES>
CC1=CC(C)=CC(C)=C1

$$$$
"3,5-dimethylphenol"	000108-68-9	108-68-9	163
  SciTegic06061110132D

  9  9  0  0  0  0            999 V2000
    0.0000    0.0000    0.0000 C   0  0
    0.0000    0.0000    0.0000 C   0  0
    0.0000    0.0000    0.0000 C   0  0
    0.0000    0.0000    0.0000 C   0  0
    0.0000    0.0000    0.0000 O   0  0
    0.0000    0.0000    0.0000 C   0  0
    0.0000    0.0000    0.0000 C   0  0
    0.0000    0.0000    0.0000 C   0  0
    0.0000    0.0000    0.0000 C   0  0
  1  2  1  0
  2  9  1  0
  2  3  2  3
  3  4  1  0
  4  5  1  0
  4  6  2  3
  6  7  1  0
  7  8  1  0
  7  9  2  3
M  END
> <Name>
"3,5-dimethylphenol"	000108-68-9	108-68-9	163

> <CAS>
000108-68-9

> <HOMO>
-8.98

> <D Path Sum F rel>
0

> <G Cl Br I>
0

> <SeaC2C2aa>
0

> <logOH_exp>
9.95

> <logOH pred>
10.02

> <HAT>
0.016

> <HAT ref>
0.07

> <Mol Id>
163

> <SMILES>
CC1=CC(O)=CC(C)=C1

$$$$
"2,6-dimethyl-4-heptanone"	000108-83-8	108-83-8	164
  SciTegic06061110132D

 10  9  0  0  0  0            999 V2000
    0.0000    0.0000    0.0000 C   0  0
    0.0000    0.0000    0.0000 C   0  0
    0.0000    0.0000    0.0000 C   0  0
    0.0000    0.0000    0.0000 C   0  0
    0.0000    0.0000    0.0000 C   0  0
    0.0000    0.0000    0.0000 O   0  0
    0.0000    0.0000    0.0000 C   0  0
    0.0000    0.0000    0.0000 C   0  0
    0.0000    0.0000    0.0000 C   0  0
    0.0000    0.0000    0.0000 C   0  0
  1  2  1  0
  2  3  1  0
  2  4  1  0
  4  5  1  0
  5  6  2  0
  5  7  1  0
  7  8  1  0
  8  9  1  0
  8 10  1  0
M  END
> <Name>
"2,6-dimethyl-4-heptanone"	000108-83-8	108-83-8	164

> <CAS>
000108-83-8

> <HOMO>
-10.34

> <D Path Sum F rel>
0

> <G Cl Br I>
0

> <SeaC2C2aa>
0

> <logOH_exp>
10.56

> <logOH pred>
10.95

> <HAT>
0.006

> <HAT ref>
0.07

> <Mol Id>
164

> <SMILES>
CC(C)CC(=O)CC(C)C

$$$$
bromobenzene	000108-86-1	108-86-1	165
  SciTegic06061110132D

  7  7  0  0  0  0            999 V2000
    0.0000    0.0000    0.0000 Br  0  0
    0.0000    0.0000    0.0000 C   0  0
    0.0000    0.0000    0.0000 C   0  0
    0.0000    0.0000    0.0000 C   0  0
    0.0000    0.0000    0.0000 C   0  0
    0.0000    0.0000    0.0000 C   0  0
    0.0000    0.0000    0.0000 C   0  0
  1  2  1  0
  2  7  1  0
  2  3  2  3
  3  4  1  0
  4  5  2  3
  5  6  1  0
  6  7  2  3
M  END
> <Name>
bromobenzene	000108-86-1	108-86-1	165

> <CAS>
000108-86-1

> <HOMO>
-9.6

> <D Path Sum F rel>
0

> <G Cl Br I>
1

> <SeaC2C2aa>
11.15395

> <logOH_exp>
12.16

> <logOH pred>
11.56

> <HAT>
0.027

> <HAT ref>
0.07

> <Mol Id>
165

> <SMILES>
BrC1=CC=CC=C1

$$$$
cycloexanone	000108-94-1	108-94-1	169
  SciTegic06061110132D

  7  7  0  0  0  0            999 V2000
    0.0000    0.0000    0.0000 O   0  0
    0.0000    0.0000    0.0000 C   0  0
    0.0000    0.0000    0.0000 C   0  0
    0.0000    0.0000    0.0000 C   0  0
    0.0000    0.0000    0.0000 C   0  0
    0.0000    0.0000    0.0000 C   0  0
    0.0000    0.0000    0.0000 C   0  0
  1  2  2  0
  2  7  1  0
  2  3  1  0
  3  4  1  0
  4  5  1  0
  5  6  1  0
  6  7  1  0
M  END
> <Name>
cycloexanone	000108-94-1	108-94-1	169

> <CAS>
000108-94-1

> <HOMO>
-10.3

> <D Path Sum F rel>
0

> <G Cl Br I>
0

> <SeaC2C2aa>
0

> <logOH_exp>
11.19

> <logOH pred>
10.93

> <HAT>
0.006

> <HAT ref>
0.07

> <Mol Id>
169

> <SMILES>
O=C1CCCCC1

$$$$
thiophenol	000108-98-5	108-98-5	171
  SciTegic06061110132D

  7  7  0  0  0  0            999 V2000
    0.0000    0.0000    0.0000 S   0  0
    0.0000    0.0000    0.0000 C   0  0
    0.0000    0.0000    0.0000 C   0  0
    0.0000    0.0000    0.0000 C   0  0
    0.0000    0.0000    0.0000 C   0  0
    0.0000    0.0000    0.0000 C   0  0
    0.0000    0.0000    0.0000 C   0  0
  1  2  1  0
  2  7  1  0
  2  3  2  3
  3  4  1  0
  4  5  2  3
  5  6  1  0
  6  7  2  3
M  END
> <Name>
thiophenol	000108-98-5	108-98-5	171

> <CAS>
000108-98-5

> <HOMO>
-8.43

> <D Path Sum F rel>
0

> <G Cl Br I>
0

> <SeaC2C2aa>
11.15169

> <logOH_exp>
10.95

> <logOH pred>
10.28

> <HAT>
0.022

> <HAT ref>
0.07

> <Mol Id>
171

> <SMILES>
SC1=CC=CC=C1

$$$$
1-propylacetate	000109-60-4	109-60-4	172
  SciTegic06061110132D

  7  6  0  0  0  0            999 V2000
    0.0000    0.0000    0.0000 C   0  0
    0.0000    0.0000    0.0000 C   0  0
    0.0000    0.0000    0.0000 C   0  0
    0.0000    0.0000    0.0000 O   0  0
    0.0000    0.0000    0.0000 C   0  0
    0.0000    0.0000    0.0000 C   0  0
    0.0000    0.0000    0.0000 O   0  0
  1  2  1  0
  2  3  1  0
  3  4  1  0
  4  5  1  0
  5  6  1  0
  5  7  2  0
M  END
> <Name>
1-propylacetate	000109-60-4	109-60-4	172

> <CAS>
000109-60-4

> <HOMO>
-11.19

> <D Path Sum F rel>
0

> <G Cl Br I>
0

> <SeaC2C2aa>
0

> <logOH_exp>
11.46

> <logOH pred>
11.54

> <HAT>
0.011

> <HAT ref>
0.07

> <Mol Id>
172

> <SMILES>
CCCOC(C)=O

$$$$
n-pentane	000109-66-0	109-66-0	173
  SciTegic06061110132D

  5  4  0  0  0  0            999 V2000
    0.0000    0.0000    0.0000 C   0  0
    0.0000    0.0000    0.0000 C   0  0
    0.0000    0.0000    0.0000 C   0  0
    0.0000    0.0000    0.0000 C   0  0
    0.0000    0.0000    0.0000 C   0  0
  1  2  1  0
  2  3  1  0
  3  4  1  0
  4  5  1  0
M  END
> <Name>
n-pentane	000109-66-0	109-66-0	173

> <CAS>
000109-66-0

> <HOMO>
-11.11

> <D Path Sum F rel>
0

> <G Cl Br I>
0

> <SeaC2C2aa>
0

> <logOH_exp>
11.39

> <logOH pred>
11.48

> <HAT>
0.01

> <HAT ref>
0.07

> <Mol Id>
173

> <SMILES>
CCCCC

$$$$
1-pentene	000109-67-1	109-67-1	174
  SciTegic06061110132D

  5  4  0  0  0  0            999 V2000
    0.0000    0.0000    0.0000 C   0  0
    0.0000    0.0000    0.0000 C   0  0
    0.0000    0.0000    0.0000 C   0  0
    0.0000    0.0000    0.0000 C   0  0
    0.0000    0.0000    0.0000 C   0  0
  1  2  1  0
  2  3  1  0
  3  4  1  0
  4  5  2  0
M  END
> <Name>
1-pentene	000109-67-1	109-67-1	174

> <CAS>
000109-67-1

> <HOMO>
-9.99

> <D Path Sum F rel>
0

> <G Cl Br I>
0

> <SeaC2C2aa>
0

> <logOH_exp>
10.5

> <logOH pred>
10.71

> <HAT>
0.007

> <HAT ref>
0.07

> <Mol Id>
174

> <SMILES>
CCCC=C

$$$$
butanethiol	000109-79-5	109-79-5	175
  SciTegic06061110132D

  5  4  0  0  0  0            999 V2000
    0.0000    0.0000    0.0000 C   0  0
    0.0000    0.0000    0.0000 C   0  0
    0.0000    0.0000    0.0000 C   0  0
    0.0000    0.0000    0.0000 C   0  0
    0.0000    0.0000    0.0000 S   0  0
  1  2  1  0
  2  3  1  0
  3  4  1  0
  4  5  1  0
M  END
> <Name>
butanethiol	000109-79-5	109-79-5	175

> <CAS>
000109-79-5

> <HOMO>
-8.94

> <D Path Sum F rel>
0

> <G Cl Br I>
0

> <SeaC2C2aa>
0

> <logOH_exp>
10.36

> <logOH pred>
9.99

> <HAT>
0.017

> <HAT ref>
0.07

> <Mol Id>
175

> <SMILES>
CCCCS

$$$$
ethyl formate	000109-94-4	109-94-4	177
  SciTegic06061110132D

  5  4  0  0  0  0            999 V2000
    0.0000    0.0000    0.0000 C   0  0
    0.0000    0.0000    0.0000 C   0  0
    0.0000    0.0000    0.0000 O   0  0
    0.0000    0.0000    0.0000 C   0  0
    0.0000    0.0000    0.0000 O   0  0
  1  2  1  0
  2  3  1  0
  3  4  1  0
  4  5  2  0
M  END
> <Name>
ethyl formate	000109-94-4	109-94-4	177

> <CAS>
000109-94-4

> <HOMO>
-11.25

> <D Path Sum F rel>
0

> <G Cl Br I>
0

> <SeaC2C2aa>
0

> <logOH_exp>
11.99

> <logOH pred>
11.58

> <HAT>
0.011

> <HAT ref>
0.07

> <Mol Id>
177

> <SMILES>
CCOC=O

$$$$
ethyl nitrite	000109-95-5	109-95-5	178
  SciTegic06061110132D

  5  4  0  0  0  0            999 V2000
    0.0000    0.0000    0.0000 C   0  0
    0.0000    0.0000    0.0000 C   0  0
    0.0000    0.0000    0.0000 O   0  0
    0.0000    0.0000    0.0000 N   0  0
    0.0000    0.0000    0.0000 O   0  0
  1  2  1  0
  2  3  1  0
  3  4  1  0
  4  5  2  0
M  END
> <Name>
ethyl nitrite	000109-95-5	109-95-5	178

> <CAS>
000109-95-5

> <HOMO>
-11.17

> <D Path Sum F rel>
0

> <G Cl Br I>
0

> <SeaC2C2aa>
0

> <logOH_exp>
11.75

> <logOH pred>
11.53

> <HAT>
0.011

> <HAT ref>
0.07

> <Mol Id>
178

> <SMILES>
CCON=O

$$$$
furan	000110-00-9	110-00-9	181
  SciTegic06061110132D

  5  5  0  0  0  0            999 V2000
    0.0000    0.0000    0.0000 O   0  0
    0.0000    0.0000    0.0000 C   0  0
    0.0000    0.0000    0.0000 C   0  0
    0.0000    0.0000    0.0000 C   0  0
    0.0000    0.0000    0.0000 C   0  0
  1  5  1  0
  1  2  1  0
  2  3  2  3
  3  4  1  0
  4  5  2  3
M  END
> <Name>
furan	000110-00-9	110-00-9	181

> <CAS>
000110-00-9

> <HOMO>
-9.32

> <D Path Sum F rel>
0

> <G Cl Br I>
0

> <SeaC2C2aa>
7.336016

> <logOH_exp>
10.39

> <logOH pred>
10.67

> <HAT>
0.01

> <HAT ref>
0.07

> <Mol Id>
181

> <SMILES>
O1C=CC=C1

$$$$
n-hexane	000110-54-3	110-54-3	187
  SciTegic06061110132D

  6  5  0  0  0  0            999 V2000
    0.0000    0.0000    0.0000 C   0  0
    0.0000    0.0000    0.0000 C   0  0
    0.0000    0.0000    0.0000 C   0  0
    0.0000    0.0000    0.0000 C   0  0
    0.0000    0.0000    0.0000 C   0  0
    0.0000    0.0000    0.0000 C   0  0
  1  2  1  0
  2  3  1  0
  3  4  1  0
  4  5  1  0
  5  6  1  0
M  END
> <Name>
n-hexane	000110-54-3	110-54-3	187

> <CAS>
000110-54-3

> <HOMO>
-11.08

> <D Path Sum F rel>
0

> <G Cl Br I>
0

> <SeaC2C2aa>
0

> <logOH_exp>
11.26

> <logOH pred>
11.46

> <HAT>
0.01

> <HAT ref>
0.07

> <Mol Id>
187

> <SMILES>
CCCCCC

$$$$
cyclohexane	000110-82-7	110-82-7	191
  SciTegic06061110132D

  6  6  0  0  0  0            999 V2000
    0.0000    0.0000    0.0000 C   0  0
    0.0000    0.0000    0.0000 C   0  0
    0.0000    0.0000    0.0000 C   0  0
    0.0000    0.0000    0.0000 C   0  0
    0.0000    0.0000    0.0000 C   0  0
    0.0000    0.0000    0.0000 C   0  0
  1  6  1  0
  1  2  1  0
  2  3  1  0
  3  4  1  0
  4  5  1  0
  5  6  1  0
M  END
> <Name>
cyclohexane	000110-82-7	110-82-7	191

> <CAS>
000110-82-7

> <HOMO>
-10.94

> <D Path Sum F rel>
0

> <G Cl Br I>
0

> <SeaC2C2aa>
0

> <logOH_exp>
11.13

> <logOH pred>
11.37

> <HAT>
0.008

> <HAT ref>
0.07

> <Mol Id>
191

> <SMILES>
C1CCCCC1

$$$$
pyridine	000110-86-1	110-86-1	193
  SciTegic06061110132D

  6  6  0  0  0  0            999 V2000
    0.0000    0.0000    0.0000 C   0  0
    0.0000    0.0000    0.0000 C   0  0
    0.0000    0.0000    0.0000 C   0  0
    0.0000    0.0000    0.0000 N   0  0
    0.0000    0.0000    0.0000 C   0  0
    0.0000    0.0000    0.0000 C   0  0
  1  6  1  0
  1  2  2  3
  2  3  1  0
  3  4  2  3
  4  5  1  0
  5  6  2  3
M  END
> <Name>
pyridine	000110-86-1	110-86-1	193

> <CAS>
000110-86-1

> <HOMO>
-9.93

> <D Path Sum F rel>
0

> <G Cl Br I>
0

> <SeaC2C2aa>
10.48781

> <logOH_exp>
12.31

> <logOH pred>
11.27

> <HAT>
0.02

> <HAT ref>
0.07

> <Mol Id>
193

> <SMILES>
C1=CC=NC=C1

$$$$
"1,3,5-trioxane"	000110-88-3	110-88-3	194
  SciTegic06061110132D

  6  6  0  0  0  0            999 V2000
    0.0000    0.0000    0.0000 C   0  0
    0.0000    0.0000    0.0000 O   0  0
    0.0000    0.0000    0.0000 C   0  0
    0.0000    0.0000    0.0000 O   0  0
    0.0000    0.0000    0.0000 C   0  0
    0.0000    0.0000    0.0000 O   0  0
  1  6  1  0
  1  2  1  0
  2  3  1  0
  3  4  1  0
  4  5  1  0
  5  6  1  0
M  END
> <Name>
"1,3,5-trioxane"	000110-88-3	110-88-3	194

> <CAS>
000110-88-3

> <HOMO>
-10.76

> <D Path Sum F rel>
0

> <G Cl Br I>
0

> <SeaC2C2aa>
0

> <logOH_exp>
11.17

> <logOH pred>
11.24

> <HAT>
0.007

> <HAT ref>
0.07

> <Mol Id>
194

> <SMILES>
C1OCOCO1

$$$$
1-hexanol	000111-27-3	111-27-3	197
  SciTegic06061110132D

  7  6  0  0  0  0            999 V2000
    0.0000    0.0000    0.0000 C   0  0
    0.0000    0.0000    0.0000 C   0  0
    0.0000    0.0000    0.0000 C   0  0
    0.0000    0.0000    0.0000 C   0  0
    0.0000    0.0000    0.0000 C   0  0
    0.0000    0.0000    0.0000 C   0  0
    0.0000    0.0000    0.0000 O   0  0
  1  2  1  0
  2  3  1  0
  3  4  1  0
  4  5  1  0
  5  6  1  0
  6  7  1  0
M  END
> <Name>
1-hexanol	000111-27-3	111-27-3	197

> <CAS>
000111-27-3

> <HOMO>
-10.85

> <D Path Sum F rel>
0

> <G Cl Br I>
0

> <SeaC2C2aa>
0

> <logOH_exp>
10.91

> <logOH pred>
11.31

> <HAT>
0.008

> <HAT ref>
0.07

> <Mol Id>
197

> <SMILES>
CCCCCCO

$$$$
"pentane-1,5-dial"	000111-30-8	111-30-8	198
  SciTegic06061110132D

  7  6  0  0  0  0            999 V2000
    0.0000    0.0000    0.0000 O   0  0
    0.0000    0.0000    0.0000 C   0  0
    0.0000    0.0000    0.0000 C   0  0
    0.0000    0.0000    0.0000 C   0  0
    0.0000    0.0000    0.0000 C   0  0
    0.0000    0.0000    0.0000 C   0  0
    0.0000    0.0000    0.0000 O   0  0
  1  2  2  0
  2  3  1  0
  3  4  1  0
  4  5  1  0
  5  6  1  0
  6  7  2  0
M  END
> <Name>
"pentane-1,5-dial"	000111-30-8	111-30-8	198

> <CAS>
000111-30-8

> <HOMO>
-10.5

> <D Path Sum F rel>
0

> <G Cl Br I>
0

> <SeaC2C2aa>
0

> <logOH_exp>
10.6

> <logOH pred>
11.06

> <HAT>
0.006

> <HAT ref>
0.07

> <Mol Id>
198

> <SMILES>
O=CCCCC=O

$$$$
3-ethoxy-1-propanol	000111-35-3	111-35-3	199
  SciTegic06061110132D

  7  6  0  0  0  0            999 V2000
    0.0000    0.0000    0.0000 C   0  0
    0.0000    0.0000    0.0000 C   0  0
    0.0000    0.0000    0.0000 O   0  0
    0.0000    0.0000    0.0000 C   0  0
    0.0000    0.0000    0.0000 C   0  0
    0.0000    0.0000    0.0000 C   0  0
    0.0000    0.0000    0.0000 O   0  0
  1  2  1  0
  2  3  1  0
  3  4  1  0
  4  5  1  0
  5  6  1  0
  6  7  1  0
M  END
> <Name>
3-ethoxy-1-propanol	000111-35-3	111-35-3	199

> <CAS>
000111-35-3

> <HOMO>
-10.48

> <D Path Sum F rel>
0

> <G Cl Br I>
0

> <SeaC2C2aa>
0

> <logOH_exp>
10.66

> <logOH pred>
11.05

> <HAT>
0.006

> <HAT ref>
0.07

> <Mol Id>
199

> <SMILES>
CCOCCCO

$$$$
dipropyl sulfide	000111-47-7	111-47-7	202
  SciTegic06061110132D

  7  6  0  0  0  0            999 V2000
    0.0000    0.0000    0.0000 C   0  0
    0.0000    0.0000    0.0000 C   0  0
    0.0000    0.0000    0.0000 C   0  0
    0.0000    0.0000    0.0000 S   0  0
    0.0000    0.0000    0.0000 C   0  0
    0.0000    0.0000    0.0000 C   0  0
    0.0000    0.0000    0.0000 C   0  0
  1  2  1  0
  2  3  1  0
  3  4  1  0
  4  5  1  0
  5  6  1  0
  6  7  1  0
M  END
> <Name>
dipropyl sulfide	000111-47-7	111-47-7	202

> <CAS>
000111-47-7

> <HOMO>
-8.44

> <D Path Sum F rel>
0

> <G Cl Br I>
0

> <SeaC2C2aa>
0

> <logOH_exp>
10.7

> <logOH pred>
9.65

> <HAT>
0.027

> <HAT ref>
0.07

> <Mol Id>
202

> <SMILES>
CCCSCCC

$$$$
1-heptanol	000111-70-6	111-70-6	204
  SciTegic06061110132D

  8  7  0  0  0  0            999 V2000
    0.0000    0.0000    0.0000 C   0  0
    0.0000    0.0000    0.0000 C   0  0
    0.0000    0.0000    0.0000 C   0  0
    0.0000    0.0000    0.0000 C   0  0
    0.0000    0.0000    0.0000 C   0  0
    0.0000    0.0000    0.0000 C   0  0
    0.0000    0.0000    0.0000 C   0  0
    0.0000    0.0000    0.0000 O   0  0
  1  2  1  0
  2  3  1  0
  3  4  1  0
  4  5  1  0
  5  6  1  0
  6  7  1  0
  7  8  1  0
M  END
> <Name>
1-heptanol	000111-70-6	111-70-6	204

> <CAS>
000111-70-6

> <HOMO>
-10.85

> <D Path Sum F rel>
0

> <G Cl Br I>
0

> <SeaC2C2aa>
0

> <logOH_exp>
10.87

> <logOH pred>
11.31

> <HAT>
0.008

> <HAT ref>
0.07

> <Mol Id>
204

> <SMILES>
CCCCCCCO

$$$$
2-methoxyethyl ether	000111-96-6	111-96-6	207
  SciTegic06061110132D

  9  8  0  0  0  0            999 V2000
    0.0000    0.0000    0.0000 C   0  0
    0.0000    0.0000    0.0000 O   0  0
    0.0000    0.0000    0.0000 C   0  0
    0.0000    0.0000    0.0000 C   0  0
    0.0000    0.0000    0.0000 O   0  0
    0.0000    0.0000    0.0000 C   0  0
    0.0000    0.0000    0.0000 C   0  0
    0.0000    0.0000    0.0000 O   0  0
    0.0000    0.0000    0.0000 C   0  0
  1  2  1  0
  2  3  1  0
  3  4  1  0
  4  5  1  0
  5  6  1  0
  6  7  1  0
  7  8  1  0
  8  9  1  0
M  END
> <Name>
2-methoxyethyl ether	000111-96-6	111-96-6	207

> <CAS>
000111-96-6

> <HOMO>
-10.48

> <D Path Sum F rel>
0

> <G Cl Br I>
0

> <SeaC2C2aa>
0

> <logOH_exp>
10.76

> <logOH pred>
11.05

> <HAT>
0.006

> <HAT ref>
0.07

> <Mol Id>
207

> <SMILES>
COCCOCCOC

$$$$
2-ethoxyethyl ether	000112-36-7	112-36-7	208
  SciTegic06061110132D

 11 10  0  0  0  0            999 V2000
    0.0000    0.0000    0.0000 C   0  0
    0.0000    0.0000    0.0000 C   0  0
    0.0000    0.0000    0.0000 O   0  0
    0.0000    0.0000    0.0000 C   0  0
    0.0000    0.0000    0.0000 C   0  0
    0.0000    0.0000    0.0000 O   0  0
    0.0000    0.0000    0.0000 C   0  0
    0.0000    0.0000    0.0000 C   0  0
    0.0000    0.0000    0.0000 O   0  0
    0.0000    0.0000    0.0000 C   0  0
    0.0000    0.0000    0.0000 C   0  0
  1  2  1  0
  2  3  1  0
  3  4  1  0
  4  5  1  0
  5  6  1  0
  6  7  1  0
  7  8  1  0
  8  9  1  0
  9 10  1  0
 10 11  1  0
M  END
> <Name>
2-ethoxyethyl ether	000112-36-7	112-36-7	208

> <CAS>
000112-36-7

> <HOMO>
-10.42

> <D Path Sum F rel>
0

> <G Cl Br I>
0

> <SeaC2C2aa>
0

> <logOH_exp>
10.57

> <logOH pred>
11.01

> <HAT>
0.006

> <HAT ref>
0.07

> <Mol Id>
208

> <SMILES>
CCOCCOCCOCC

$$$$
n-dodecane	000112-40-3	112-40-3	209
  SciTegic06061110132D

 12 11  0  0  0  0            999 V2000
    0.0000    0.0000    0.0000 C   0  0
    0.0000    0.0000    0.0000 C   0  0
    0.0000    0.0000    0.0000 C   0  0
    0.0000    0.0000    0.0000 C   0  0
    0.0000    0.0000    0.0000 C   0  0
    0.0000    0.0000    0.0000 C   0  0
    0.0000    0.0000    0.0000 C   0  0
    0.0000    0.0000    0.0000 C   0  0
    0.0000    0.0000    0.0000 C   0  0
    0.0000    0.0000    0.0000 C   0  0
    0.0000    0.0000    0.0000 C   0  0
    0.0000    0.0000    0.0000 C   0  0
  1  2  1  0
  2  3  1  0
  3  4  1  0
  4  5  1  0
  5  6  1  0
  6  7  1  0
  7  8  1  0
  8  9  1  0
  9 10  1  0
 10 11  1  0
 11 12  1  0
M  END
> <Name>
n-dodecane	000112-40-3	112-40-3	209

> <CAS>
000112-40-3

> <HOMO>
-11.06

> <D Path Sum F rel>
0

> <G Cl Br I>
0

> <SeaC2C2aa>
0

> <logOH_exp>
10.86

> <logOH pred>
11.45

> <HAT>
0.009

> <HAT ref>
0.07

> <Mol Id>
209

> <SMILES>
CCCCCCCCCCCC

$$$$
1-propene	000115-07-1	115-07-1	210
  SciTegic06061110132D

  3  2  0  0  0  0            999 V2000
    0.0000    0.0000    0.0000 C   0  0
    0.0000    0.0000    0.0000 C   0  0
    0.0000    0.0000    0.0000 C   0  0
  1  2  1  0
  2  3  2  0
M  END
> <Name>
1-propene	000115-07-1	115-07-1	210

> <CAS>
000115-07-1

> <HOMO>
-9.99

> <D Path Sum F rel>
0

> <G Cl Br I>
0

> <SeaC2C2aa>
0

> <logOH_exp>
10.56

> <logOH pred>
10.71

> <HAT>
0.007

> <HAT ref>
0.07

> <Mol Id>
210

> <SMILES>
CC=C

$$$$
hydroxyacetone	000116-09-6	116-09-6	213
  SciTegic06061110132D

  5  4  0  0  0  0            999 V2000
    0.0000    0.0000    0.0000 C   0  0
    0.0000    0.0000    0.0000 C   0  0
    0.0000    0.0000    0.0000 O   0  0
    0.0000    0.0000    0.0000 C   0  0
    0.0000    0.0000    0.0000 O   0  0
  1  2  1  0
  2  3  2  0
  2  4  1  0
  4  5  1  0
M  END
> <Name>
hydroxyacetone	000116-09-6	116-09-6	213

> <CAS>
000116-09-6

> <HOMO>
-10.69

> <D Path Sum F rel>
0

> <G Cl Br I>
0

> <SeaC2C2aa>
0

> <logOH_exp>
11.52

> <logOH pred>
11.2

> <HAT>
0.007

> <HAT ref>
0.07

> <Mol Id>
213

> <SMILES>
CC(=O)CO

$$$$
anthracene	000120-12-7	120-12-7	215
  SciTegic06061110132D

 14 16  0  0  0  0            999 V2000
    0.0000    0.0000    0.0000 C   0  0
    0.0000    0.0000    0.0000 C   0  0
    0.0000    0.0000    0.0000 C   0  0
    0.0000    0.0000    0.0000 C   0  0
    0.0000    0.0000    0.0000 C   0  0
    0.0000    0.0000    0.0000 C   0  0
    0.0000    0.0000    0.0000 C   0  0
    0.0000    0.0000    0.0000 C   0  0
    0.0000    0.0000    0.0000 C   0  0
    0.0000    0.0000    0.0000 C   0  0
    0.0000    0.0000    0.0000 C   0  0
    0.0000    0.0000    0.0000 C   0  0
    0.0000    0.0000    0.0000 C   0  0
    0.0000    0.0000    0.0000 C   0  0
  1 14  1  0
  1  2  2  3
  2  3  1  0
  3 12  1  0
  3  4  2  3
  4  5  1  0
  5 10  1  0
  5  6  2  3
  6  7  1  0
  6 11  1  0
  7  8  2  3
  8  9  1  0
  9 10  2  3
 11 12  2  3
 12 13  1  0
 13 14  2  3
M  END
> <Name>
anthracene	000120-12-7	120-12-7	215

> <CAS>
000120-12-7

> <HOMO>
-8.12

> <D Path Sum F rel>
0

> <G Cl Br I>
0

> <SeaC2C2aa>
18.07911

> <logOH_exp>
10.1

> <logOH pred>
10.46

> <HAT>
0.05

> <HAT ref>
0.07

> <Mol Id>
215

> <SMILES>
C1=CC2=CC3=C(C=CC=C3)C=C2C=C1

$$$$
"1,2,4-trichlorobenzene"	000120-82-1	120-82-1	216
  SciTegic06061110132D

  9  9  0  0  0  0            999 V2000
    0.0000    0.0000    0.0000 Cl  0  0
    0.0000    0.0000    0.0000 C   0  0
    0.0000    0.0000    0.0000 C   0  0
    0.0000    0.0000    0.0000 C   0  0
    0.0000    0.0000    0.0000 C   0  0
    0.0000    0.0000    0.0000 Cl  0  0
    0.0000    0.0000    0.0000 C   0  0
    0.0000    0.0000    0.0000 Cl  0  0
    0.0000    0.0000    0.0000 C   0  0
  1  2  1  0
  2  9  1  0
  2  3  2  3
  3  4  1  0
  4  5  2  3
  5  6  1  0
  5  7  1  0
  7  8  1  0
  7  9  2  3
M  END
> <Name>
"1,2,4-trichlorobenzene"	000120-82-1	120-82-1	216

> <CAS>
000120-82-1

> <HOMO>
-9.62

> <D Path Sum F rel>
0

> <G Cl Br I>
3

> <SeaC2C2aa>
2.461908

> <logOH_exp>
12.27

> <logOH pred>
12.04

> <HAT>
0.107*

> <HAT ref>
0.07

> <Mol Id>
216

> <SMILES>
ClC1=CC=C(Cl)C(Cl)=C1

$$$$
"bicyclo(2,2,1)-2,5-heptadiene"	000121-46-0	121-46-0	219
  SciTegic06061110132D

  9 10  0  0  0  0            999 V2000
    0.0000    0.0000    0.0000 C   0  0
    0.0000    0.0000    0.0000 C   0  0
    0.0000    0.0000    0.0000 H   0  0
    0.0000    0.0000    0.0000 C   0  0
    0.0000    0.0000    0.0000 C   0  0
    0.0000    0.0000    0.0000 C   0  0
    0.0000    0.0000    0.0000 H   0  0
    0.0000    0.0000    0.0000 C   0  0
    0.0000    0.0000    0.0000 C   0  0
  1  6  1  0
  1  2  1  0
  2  3  1  0
  2  9  1  0
  2  4  1  0
  4  5  2  3
  5  6  1  0
  6  7  1  0
  6  8  1  0
  8  9  2  3
M  END
> <Name>
"bicyclo(2,2,1)-2,5-heptadiene"	000121-46-0	121-46-0	219

> <CAS>
000121-46-0

> <HOMO>
-9.41

> <D Path Sum F rel>
0

> <G Cl Br I>
0

> <SeaC2C2aa>
0

> <logOH_exp>
9.92

> <logOH pred>
10.32

> <HAT>
0.011

> <HAT ref>
0.07

> <Mol Id>
219

> <SMILES>
C1[C@H]2C=C[C@@H]1C=C2

$$$$
"N,N-dimethyl-aniline"	000121-69-7	121-69-7	220
  SciTegic06061110132D

  9  9  0  0  0  0            999 V2000
    0.0000    0.0000    0.0000 C   0  0
    0.0000    0.0000    0.0000 N   0  0
    0.0000    0.0000    0.0000 C   0  0
    0.0000    0.0000    0.0000 C   0  0
    0.0000    0.0000    0.0000 C   0  0
    0.0000    0.0000    0.0000 C   0  0
    0.0000    0.0000    0.0000 C   0  0
    0.0000    0.0000    0.0000 C   0  0
    0.0000    0.0000    0.0000 C   0  0
  1  2  1  0
  2  3  1  0
  2  4  1  0
  4  9  1  0
  4  5  2  3
  5  6  1  0
  6  7  2  3
  7  8  1  0
  8  9  2  3
M  END
> <Name>
"N,N-dimethyl-aniline"	000121-69-7	121-69-7	220

> <CAS>
000121-69-7

> <HOMO>
-8.5

> <D Path Sum F rel>
0

> <G Cl Br I>
0

> <SeaC2C2aa>
12.09749

> <logOH_exp>
9.83

> <logOH pred>
10.38

> <HAT>
0.024

> <HAT ref>
0.07

> <Mol Id>
220

> <SMILES>
CN(C)C1=CC=CC=C1

$$$$
myrcene	000123-35-3	123-35-3	221
  SciTegic06061110132D

 10  9  0  0  0  0            999 V2000
    0.0000    0.0000    0.0000 C   0  0
    0.0000    0.0000    0.0000 C   0  0
    0.0000    0.0000    0.0000 C   0  0
    0.0000    0.0000    0.0000 C   0  0
    0.0000    0.0000    0.0000 C   0  0
    0.0000    0.0000    0.0000 C   0  0
    0.0000    0.0000    0.0000 C   0  0
    0.0000    0.0000    0.0000 C   0  0
    0.0000    0.0000    0.0000 C   0  0
    0.0000    0.0000    0.0000 C   0  0
  1  2  1  0
  2  3  1  0
  2  4  2  3
  4  5  1  0
  5  6  1  0
  6  7  1  0
  7  8  2  0
  7  9  1  0
  9 10  2  0
M  END
> <Name>
myrcene	000123-35-3	123-35-3	221

> <CAS>
000123-35-3

> <HOMO>
-9.23

> <D Path Sum F rel>
0

> <G Cl Br I>
0

> <SeaC2C2aa>
0

> <logOH_exp>
9.67

> <logOH pred>
10.19

> <HAT>
0.013

> <HAT ref>
0.07

> <Mol Id>
221

> <SMILES>
C\C(C)=C\CCC(=C)C=C

$$$$
propionaldehyde	000123-38-6	123-38-6	222
  SciTegic06061110132D

  4  3  0  0  0  0            999 V2000
    0.0000    0.0000    0.0000 C   0  0
    0.0000    0.0000    0.0000 C   0  0
    0.0000    0.0000    0.0000 C   0  0
    0.0000    0.0000    0.0000 O   0  0
  1  2  1  0
  2  3  1  0
  3  4  2  0
M  END
> <Name>
propionaldehyde	000123-38-6	123-38-6	222

> <CAS>
000123-38-6

> <HOMO>
-10.58

> <D Path Sum F rel>
0

> <G Cl Br I>
0

> <SeaC2C2aa>
0

> <logOH_exp>
10.71

> <logOH pred>
11.12

> <HAT>
0.006

> <HAT ref>
0.07

> <Mol Id>
222

> <SMILES>
CCC=O

$$$$
butanal	000123-72-8	123-72-8	224
  SciTegic06061110132D

  5  4  0  0  0  0            999 V2000
    0.0000    0.0000    0.0000 C   0  0
    0.0000    0.0000    0.0000 C   0  0
    0.0000    0.0000    0.0000 C   0  0
    0.0000    0.0000    0.0000 C   0  0
    0.0000    0.0000    0.0000 O   0  0
  1  2  1  0
  2  3  1  0
  3  4  1  0
  4  5  2  0
M  END
> <Name>
butanal	000123-72-8	123-72-8	224

> <CAS>
000123-72-8

> <HOMO>
-10.59

> <D Path Sum F rel>
0

> <G Cl Br I>
0

> <SeaC2C2aa>
0

> <logOH_exp>
10.6

> <logOH pred>
11.13

> <HAT>
0.007

> <HAT ref>
0.07

> <Mol Id>
224

> <SMILES>
CCCC=O

$$$$
n-decane	000124-18-5	124-18-5	228
  SciTegic06061110132D

 10  9  0  0  0  0            999 V2000
    0.0000    0.0000    0.0000 C   0  0
    0.0000    0.0000    0.0000 C   0  0
    0.0000    0.0000    0.0000 C   0  0
    0.0000    0.0000    0.0000 C   0  0
    0.0000    0.0000    0.0000 C   0  0
    0.0000    0.0000    0.0000 C   0  0
    0.0000    0.0000    0.0000 C   0  0
    0.0000    0.0000    0.0000 C   0  0
    0.0000    0.0000    0.0000 C   0  0
    0.0000    0.0000    0.0000 C   0  0
  1  2  1  0
  2  3  1  0
  3  4  1  0
  4  5  1  0
  5  6  1  0
  6  7  1  0
  7  8  1  0
  8  9  1  0
  9 10  1  0
M  END
> <Name>
n-decane	000124-18-5	124-18-5	228

> <CAS>
000124-18-5

> <HOMO>
-11.06

> <D Path Sum F rel>
0

> <G Cl Br I>
0

> <SeaC2C2aa>
0

> <logOH_exp>
11.95

> <logOH pred>
11.45

> <HAT>
0.009

> <HAT ref>
0.07

> <Mol Id>
228

> <SMILES>
CCCCCCCCCC

$$$$
dimethyl-amine	000124-40-3	124-40-3	229
  SciTegic06061110132D

  3  2  0  0  0  0            999 V2000
    0.0000    0.0000    0.0000 C   0  0
    0.0000    0.0000    0.0000 N   0  0
    0.0000    0.0000    0.0000 C   0  0
  1  2  1  0
  2  3  1  0
M  END
> <Name>
dimethyl-amine	000124-40-3	124-40-3	229

> <CAS>
000124-40-3

> <HOMO>
-9.39

> <D Path Sum F rel>
0

> <G Cl Br I>
0

> <SeaC2C2aa>
0

> <logOH_exp>
10.18

> <logOH pred>
10.3

> <HAT>
0.011

> <HAT ref>
0.07

> <Mol Id>
229

> <SMILES>
CNC

$$$$
"1,4-naphthoquinone"	000130-15-4	130-15-4	234
  SciTegic06061110132D

 12 13  0  0  0  0            999 V2000
    0.0000    0.0000    0.0000 O   0  0
    0.0000    0.0000    0.0000 C   0  0
    0.0000    0.0000    0.0000 C   0  0
    0.0000    0.0000    0.0000 C   0  0
    0.0000    0.0000    0.0000 C   0  0
    0.0000    0.0000    0.0000 O   0  0
    0.0000    0.0000    0.0000 C   0  0
    0.0000    0.0000    0.0000 C   0  0
    0.0000    0.0000    0.0000 C   0  0
    0.0000    0.0000    0.0000 C   0  0
    0.0000    0.0000    0.0000 C   0  0
    0.0000    0.0000    0.0000 C   0  0
  1  2  1  0
  2  8  1  0
  2  3  2  3
  3  4  1  0
  4  5  2  3
  5  6  1  0
  5  7  1  0
  7 12  1  0
  7  8  2  3
  8  9  1  0
  9 10  2  3
 10 11  1  0
 11 12  2  3
M  END
> <Name>
"1,4-naphthoquinone"	000130-15-4	130-15-4	234

> <CAS>
000130-15-4

> <HOMO>
-10.26

> <D Path Sum F rel>
0

> <G Cl Br I>
0

> <SeaC2C2aa>
10.30932

> <logOH_exp>
11.51

> <logOH pred>
11.49

> <HAT>
0.022

> <HAT ref>
0.07

> <Mol Id>
234

> <SMILES>
OC1=CC=C(O)C2=C1C=CC=C2

$$$$
limonene	000138-86-3	138-86-3	235
  SciTegic06061110132D

 11 11  0  0  0  0            999 V2000
    0.0000    0.0000    0.0000 C   0  0
    0.0000    0.0000    0.0000 C   0  0
    0.0000    0.0000    0.0000 C   0  0
    0.0000    0.0000    0.0000 C   0  0
    0.0000    0.0000    0.0000 H   0  0
    0.0000    0.0000    0.0000 C   0  0
    0.0000    0.0000    0.0000 C   0  0
    0.0000    0.0000    0.0000 C   0  0
    0.0000    0.0000    0.0000 C   0  0
    0.0000    0.0000    0.0000 C   0  0
    0.0000    0.0000    0.0000 C   0  0
  1  2  1  0
  2  3  2  0
  2  4  1  0
  4  5  1  0
  4 11  1  0
  4  6  1  0
  6  7  1  0
  7  8  1  0
  8  9  1  0
  8 10  2  3
 10 11  1  0
M  END
> <Name>
limonene	000138-86-3	138-86-3	235

> <CAS>
000138-86-3

> <HOMO>
-9.23

> <D Path Sum F rel>
0

> <G Cl Br I>
0

> <SeaC2C2aa>
0

> <logOH_exp>
9.77

> <logOH pred>
10.19

> <HAT>
0.013

> <HAT ref>
0.07

> <Mol Id>
235

> <SMILES>
CC(=C)[C@H]1CCC(C)=CC1

$$$$
glycolaldehyde	000141-46-8	141-46-8	236
  SciTegic06061110132D

  4  3  0  0  0  0            999 V2000
    0.0000    0.0000    0.0000 O   0  0
    0.0000    0.0000    0.0000 C   0  0
    0.0000    0.0000    0.0000 C   0  0
    0.0000    0.0000    0.0000 O   0  0
  1  2  1  0
  2  3  1  0
  3  4  2  0
M  END
> <Name>
glycolaldehyde	000141-46-8	141-46-8	236

> <CAS>
000141-46-8

> <HOMO>
-10.78

> <D Path Sum F rel>
0

> <G Cl Br I>
0

> <SeaC2C2aa>
0

> <logOH_exp>
11

> <logOH pred>
11.26

> <HAT>
0.007

> <HAT ref>
0.07

> <Mol Id>
236

> <SMILES>
OCC=O

$$$$
cyclopentene	000142-29-0	142-29-0	239
  SciTegic06061110132D

  5  5  0  0  0  0            999 V2000
    0.0000    0.0000    0.0000 C   0  0
    0.0000    0.0000    0.0000 C   0  0
    0.0000    0.0000    0.0000 C   0  0
    0.0000    0.0000    0.0000 C   0  0
    0.0000    0.0000    0.0000 C   0  0
  1  5  1  0
  1  2  1  0
  2  3  1  0
  3  4  2  3
  4  5  1  0
M  END
> <Name>
cyclopentene	000142-29-0	142-29-0	239

> <CAS>
000142-29-0

> <HOMO>
-9.44

> <D Path Sum F rel>
0

> <G Cl Br I>
0

> <SeaC2C2aa>
0

> <logOH_exp>
10.17

> <logOH pred>
10.34

> <HAT>
0.01

> <HAT ref>
0.07

> <Mol Id>
239

> <SMILES>
C1CC=CC1

$$$$
n-heptane	000142-82-5	142-82-5	241
  SciTegic06061110132D

  7  6  0  0  0  0            999 V2000
    0.0000    0.0000    0.0000 C   0  0
    0.0000    0.0000    0.0000 C   0  0
    0.0000    0.0000    0.0000 C   0  0
    0.0000    0.0000    0.0000 C   0  0
    0.0000    0.0000    0.0000 C   0  0
    0.0000    0.0000    0.0000 C   0  0
    0.0000    0.0000    0.0000 C   0  0
  1  2  1  0
  2  3  1  0
  3  4  1  0
  4  5  1  0
  5  6  1  0
  6  7  1  0
M  END
> <Name>
n-heptane	000142-82-5	142-82-5	241

> <CAS>
000142-82-5

> <HOMO>
-11.07

> <D Path Sum F rel>
0

> <G Cl Br I>
0

> <SeaC2C2aa>
0

> <logOH_exp>
11.14

> <logOH pred>
11.46

> <HAT>
0.01

> <HAT ref>
0.07

> <Mol Id>
241

> <SMILES>
CCCCCCC

$$$$
"O,O,O-trimethyl phosphorothioate"	000152-18-1	152-18-1	244
  SciTegic06061110132D

  8  7  0  0  0  0            999 V2000
    0.0000    0.0000    0.0000 C   0  0
    0.0000    0.0000    0.0000 O   0  0
    0.0000    0.0000    0.0000 P   0  0
    0.0000    0.0000    0.0000 S   0  0
    0.0000    0.0000    0.0000 O   0  0
    0.0000    0.0000    0.0000 C   0  0
    0.0000    0.0000    0.0000 O   0  0
    0.0000    0.0000    0.0000 C   0  0
  1  2  1  0
  2  3  1  0
  3  4  2  0
  3  5  1  0
  3  7  1  0
  5  6  1  0
  7  8  1  0
M  END
> <Name>
"O,O,O-trimethyl phosphorothioate"	000152-18-1	152-18-1	244

> <CAS>
000152-18-1

> <HOMO>
-10.06

> <D Path Sum F rel>
0

> <G Cl Br I>
0

> <SeaC2C2aa>
0

> <logOH_exp>
10.16

> <logOH pred>
10.76

> <HAT>
0.006

> <HAT ref>
0.07

> <Mol Id>
244

> <SMILES>
COP(=S)(OC)OC

$$$$
"cis-1,2-dichloroethene"	000156-59-2	156-59-2	246
  SciTegic06061110132D

  4  3  0  0  0  0            999 V2000
    0.0000    0.0000    0.0000 Cl  0  0
    0.0000    0.0000    0.0000 C   0  0
    0.0000    0.0000    0.0000 C   0  0
    0.0000    0.0000    0.0000 Cl  0  0
  1  2  1  0
  2  3  2  3
  3  4  1  0
M  END
> <Name>
"cis-1,2-dichloroethene"	000156-59-2	156-59-2	246

> <CAS>
000156-59-2

> <HOMO>
-9.97

> <D Path Sum F rel>
0

> <G Cl Br I>
2

> <SeaC2C2aa>
0

> <logOH_exp>
11.62

> <logOH pred>
11.66

> <HAT>
0.048

> <HAT ref>
0.07

> <Mol Id>
246

> <SMILES>
Cl\C=C/Cl

$$$$
acenaphthylene	000208-96-8	208-96-8	248
  SciTegic06061110132D

 12 14  0  0  0  0            999 V2000
    0.0000    0.0000    0.0000 C   0  0
    0.0000    0.0000    0.0000 C   0  0
    0.0000    0.0000    0.0000 C   0  0
    0.0000    0.0000    0.0000 C   0  0
    0.0000    0.0000    0.0000 C   0  0
    0.0000    0.0000    0.0000 C   0  0
    0.0000    0.0000    0.0000 C   0  0
    0.0000    0.0000    0.0000 C   0  0
    0.0000    0.0000    0.0000 C   0  0
    0.0000    0.0000    0.0000 C   0  0
    0.0000    0.0000    0.0000 C   0  0
    0.0000    0.0000    0.0000 C   0  0
  1  9  1  0
  1  2  2  3
  2  3  1  0
  3  8  1  0
  3  4  2  3
  4  5  1  0
  5  6  2  3
  6  7  1  0
  7 12  1  0
  7  8  2  3
  8  9  1  0
  9 10  2  3
 10 11  1  0
 11 12  2  3
M  END
> <Name>
acenaphthylene	000208-96-8	208-96-8	248

> <CAS>
000208-96-8

> <HOMO>
-8.94

> <D Path Sum F rel>
0

> <G Cl Br I>
0

> <SeaC2C2aa>
12.00194

> <logOH_exp>
9.96

> <logOH pred>
10.67

> <HAT>
0.022

> <HAT ref>
0.07

> <Mol Id>
248

> <SMILES>
C1=CC2=CC=CC3=C2C1=CC=C3

$$$$
"2,3-benzofuran"	000271-89-6	271-89-6	249
  SciTegic06061110132D

  9 10  0  0  0  0            999 V2000
    0.0000    0.0000    0.0000 O   0  0
    0.0000    0.0000    0.0000 C   0  0
    0.0000    0.0000    0.0000 C   0  0
    0.0000    0.0000    0.0000 C   0  0
    0.0000    0.0000    0.0000 C   0  0
    0.0000    0.0000    0.0000 C   0  0
    0.0000    0.0000    0.0000 C   0  0
    0.0000    0.0000    0.0000 C   0  0
    0.0000    0.0000    0.0000 C   0  0
  1  5  1  0
  1  2  1  0
  2  3  2  3
  3  4  1  0
  4  9  1  0
  4  5  2  3
  5  6  1  0
  6  7  2  3
  7  8  1  0
  8  9  2  3
M  END
> <Name>
"2,3-benzofuran"	000271-89-6	271-89-6	249

> <CAS>
000271-89-6

> <HOMO>
-9.01

> <D Path Sum F rel>
0

> <G Cl Br I>
0

> <SeaC2C2aa>
10.89651

> <logOH_exp>
10.43

> <logOH pred>
10.66

> <HAT>
0.018

> <HAT ref>
0.07

> <Mol Id>
249

> <SMILES>
O1C=CC2=C1C=CC=C2

$$$$
"bicyclo(2,2,2)octane"	000280-33-1	280-33-1	251
  SciTegic06061110132D

 10 11  0  0  0  0            999 V2000
    0.0000    0.0000    0.0000 C   0  0
    0.0000    0.0000    0.0000 C   0  0
    0.0000    0.0000    0.0000 C   0  0
    0.0000    0.0000    0.0000 H   0  0
    0.0000    0.0000    0.0000 C   0  0
    0.0000    0.0000    0.0000 C   0  0
    0.0000    0.0000    0.0000 C   0  0
    0.0000    0.0000    0.0000 H   0  0
    0.0000    0.0000    0.0000 C   0  0
    0.0000    0.0000    0.0000 C   0  0
  1  7  1  0
  1  2  1  0
  2  3  1  0
  3  4  1  0
  3 10  1  0
  3  5  1  0
  5  6  1  0
  6  7  1  0
  7  8  1  0
  7  9  1  0
  9 10  1  0
M  END
> <Name>
"bicyclo(2,2,2)octane"	000280-33-1	280-33-1	251

> <CAS>
000280-33-1

> <HOMO>
-10.56

> <D Path Sum F rel>
0

> <G Cl Br I>
0

> <SeaC2C2aa>
0

> <logOH_exp>
10.83

> <logOH pred>
11.11

> <HAT>
0.006

> <HAT ref>
0.07

> <Mol Id>
251

> <SMILES>
C1C[C@@H]2CC[C@H]1CC2

$$$$
cyclobutane	000287-23-0	287-23-0	253
  SciTegic06061110132D

  4  4  0  0  0  0            999 V2000
    0.0000    0.0000    0.0000 C   0  0
    0.0000    0.0000    0.0000 C   0  0
    0.0000    0.0000    0.0000 C   0  0
    0.0000    0.0000    0.0000 C   0  0
  1  4  1  0
  1  2  1  0
  2  3  1  0
  3  4  1  0
M  END
> <Name>
cyclobutane	000287-23-0	287-23-0	253

> <CAS>
000287-23-0

> <HOMO>
-10.99

> <D Path Sum F rel>
0

> <G Cl Br I>
0

> <SeaC2C2aa>
0

> <logOH_exp>
11.92

> <logOH pred>
11.4

> <HAT>
0.009

> <HAT ref>
0.07

> <Mol Id>
253

> <SMILES>
C1CCC1

$$$$
cyclopentane	000287-92-3	287-92-3	254
  SciTegic06061110132D

  5  5  0  0  0  0            999 V2000
    0.0000    0.0000    0.0000 C   0  0
    0.0000    0.0000    0.0000 C   0  0
    0.0000    0.0000    0.0000 C   0  0
    0.0000    0.0000    0.0000 C   0  0
    0.0000    0.0000    0.0000 C   0  0
  1  5  1  0
  1  2  1  0
  2  3  1  0
  3  4  1  0
  4  5  1  0
M  END
> <Name>
cyclopentane	000287-92-3	287-92-3	254

> <CAS>
000287-92-3

> <HOMO>
-10.97

> <D Path Sum F rel>
0

> <G Cl Br I>
0

> <SeaC2C2aa>
0

> <logOH_exp>
11.28

> <logOH pred>
11.39

> <HAT>
0.009

> <HAT ref>
0.07

> <Mol Id>
254

> <SMILES>
C1CCCC1

$$$$
oxazole	000288-42-6	288-42-6	256
  SciTegic06061110132D

  5  5  0  0  0  0            999 V2000
    0.0000    0.0000    0.0000 O   0  0
    0.0000    0.0000    0.0000 C   0  0
    0.0000    0.0000    0.0000 C   0  0
    0.0000    0.0000    0.0000 N   0  0
    0.0000    0.0000    0.0000 C   0  0
  1  5  1  0
  1  2  1  0
  2  3  2  3
  3  4  1  0
  4  5  2  3
M  END
> <Name>
oxazole	000288-42-6	288-42-6	256

> <CAS>
000288-42-6

> <HOMO>
-9.89

> <D Path Sum F rel>
0

> <G Cl Br I>
0

> <SeaC2C2aa>
2.103843

> <logOH_exp>
11.01

> <logOH pred>
10.76

> <HAT>
0.005

> <HAT ref>
0.07

> <Mol Id>
256

> <SMILES>
O1C=CN=C1

$$$$
thiazole	000288-47-1	288-47-1	257
  SciTegic06061110132D

  5  5  0  0  0  0            999 V2000
    0.0000    0.0000    0.0000 C   0  0
    0.0000    0.0000    0.0000 C   0  0
    0.0000    0.0000    0.0000 S   0  0
    0.0000    0.0000    0.0000 C   0  0
    0.0000    0.0000    0.0000 N   0  0
  1  5  1  0
  1  2  1  0
  2  3  1  0
  3  4  1  0
  4  5  1  0
M  END
> <Name>
thiazole	000288-47-1	288-47-1	257

> <CAS>
000288-47-1

> <HOMO>
-9.7

> <D Path Sum F rel>
0

> <G Cl Br I>
0

> <SeaC2C2aa>
0

> <logOH_exp>
11.85

> <logOH pred>
10.51

> <HAT>
0.008

> <HAT ref>
0.07

> <Mol Id>
257

> <SMILES>
C1CSCN1

$$$$
"1,3,5-triazine"	000290-87-9	290-87-9	258
  SciTegic06061110132D

  6  6  0  0  0  0            999 V2000
    0.0000    0.0000    0.0000 C   0  0
    0.0000    0.0000    0.0000 N   0  0
    0.0000    0.0000    0.0000 C   0  0
    0.0000    0.0000    0.0000 N   0  0
    0.0000    0.0000    0.0000 C   0  0
    0.0000    0.0000    0.0000 N   0  0
  1  6  1  0
  1  2  2  3
  2  3  1  0
  3  4  2  3
  4  5  1  0
  5  6  2  3
M  END
> <Name>
"1,3,5-triazine"	000290-87-9	290-87-9	258

> <CAS>
000290-87-9

> <HOMO>
-11.32

> <D Path Sum F rel>
0

> <G Cl Br I>
0

> <SeaC2C2aa>
0

> <logOH_exp>
12.84

> <logOH pred>
11.63

> <HAT>
0.012

> <HAT ref>
0.07

> <Mol Id>
258

> <SMILES>
C1=NC=NC=N1

$$$$
cycloheptane	000291-64-5	291-64-5	259
  SciTegic06061110132D

  7  7  0  0  0  0            999 V2000
    0.0000    0.0000    0.0000 C   0  0
    0.0000    0.0000    0.0000 C   0  0
    0.0000    0.0000    0.0000 C   0  0
    0.0000    0.0000    0.0000 C   0  0
    0.0000    0.0000    0.0000 C   0  0
    0.0000    0.0000    0.0000 C   0  0
    0.0000    0.0000    0.0000 C   0  0
  1  7  1  0
  1  2  1  0
  2  3  1  0
  3  4  1  0
  4  5  1  0
  5  6  1  0
  6  7  1  0
M  END
> <Name>
cycloheptane	000291-64-5	291-64-5	259

> <CAS>
000291-64-5

> <HOMO>
-10.76

> <D Path Sum F rel>
0

> <G Cl Br I>
0

> <SeaC2C2aa>
0

> <logOH_exp>
10.93

> <logOH pred>
11.24

> <HAT>
0.007

> <HAT ref>
0.07

> <Mol Id>
259

> <SMILES>
C1CCCCCC1

$$$$
cyclooctane	000292-64-8	292-64-8	260
  SciTegic06061110132D

  8  8  0  0  0  0            999 V2000
    0.0000    0.0000    0.0000 C   0  0
    0.0000    0.0000    0.0000 C   0  0
    0.0000    0.0000    0.0000 C   0  0
    0.0000    0.0000    0.0000 C   0  0
    0.0000    0.0000    0.0000 C   0  0
    0.0000    0.0000    0.0000 C   0  0
    0.0000    0.0000    0.0000 C   0  0
    0.0000    0.0000    0.0000 C   0  0
  1  8  1  0
  1  2  1  0
  2  3  1  0
  3  4  1  0
  4  5  1  0
  5  6  1  0
  6  7  1  0
  7  8  1  0
M  END
> <Name>
cyclooctane	000292-64-8	292-64-8	260

> <CAS>
000292-64-8

> <HOMO>
-10.78

> <D Path Sum F rel>
0

> <G Cl Br I>
0

> <SeaC2C2aa>
0

> <logOH_exp>
10.86

> <logOH pred>
11.26

> <HAT>
0.007

> <HAT ref>
0.07

> <Mol Id>
260

> <SMILES>
C1CCCCCCC1

$$$$
"1,1-dichloro-2,2,2-trifluoroethane"	000306-83-2	306-83-2	262
  SciTegic06061110132D

  7  6  0  0  0  0            999 V2000
    0.0000    0.0000    0.0000 F   0  0
    0.0000    0.0000    0.0000 C   0  0
    0.0000    0.0000    0.0000 F   0  0
    0.0000    0.0000    0.0000 F   0  0
    0.0000    0.0000    0.0000 C   0  0
    0.0000    0.0000    0.0000 Cl  0  0
    0.0000    0.0000    0.0000 Cl  0  0
  1  2  1  0
  2  3  1  0
  2  4  1  0
  2  5  1  0
  5  6  1  0
  5  7  1  0
M  END
> <Name>
"1,1-dichloro-2,2,2-trifluoroethane"	000306-83-2	306-83-2	262

> <CAS>
000306-83-2

> <HOMO>
-12.07

> <D Path Sum F rel>
0.9285714

> <G Cl Br I>
2

> <SeaC2C2aa>
0

> <logOH_exp>
13.44

> <logOH pred>
14.32

> <HAT>
0.09*

> <HAT ref>
0.07

> <Mol Id>
262

> <SMILES>
FC(F)(F)C(Cl)Cl

$$$$
diethyl sulfide	000352-93-2	352-93-2	263
  SciTegic06061110132D

  5  4  0  0  0  0            999 V2000
    0.0000    0.0000    0.0000 C   0  0
    0.0000    0.0000    0.0000 C   0  0
    0.0000    0.0000    0.0000 S   0  0
    0.0000    0.0000    0.0000 C   0  0
    0.0000    0.0000    0.0000 C   0  0
  1  2  1  0
  2  3  1  0
  3  4  1  0
  4  5  1  0
M  END
> <Name>
diethyl sulfide	000352-93-2	352-93-2	263

> <CAS>
000352-93-2

> <HOMO>
-8.44

> <D Path Sum F rel>
0

> <G Cl Br I>
0

> <SeaC2C2aa>
0

> <logOH_exp>
10.84

> <logOH pred>
9.65

> <HAT>
0.027

> <HAT ref>
0.07

> <Mol Id>
263

> <SMILES>
CCSCC

$$$$
1-fluoroethane	000353-36-6	353-36-6	264
  SciTegic06061110132D

  3  2  0  0  0  0            999 V2000
    0.0000    0.0000    0.0000 C   0  0
    0.0000    0.0000    0.0000 C   0  0
    0.0000    0.0000    0.0000 F   0  0
  1  2  1  0
  2  3  1  0
M  END
> <Name>
1-fluoroethane	000353-36-6	353-36-6	264

> <CAS>
000353-36-6

> <HOMO>
-11.58

> <D Path Sum F rel>
0.75

> <G Cl Br I>
0

> <SeaC2C2aa>
0

> <logOH_exp>
12.64

> <logOH pred>
12.79

> <HAT>
0.045

> <HAT ref>
0.07

> <Mol Id>
264

> <SMILES>
CCF

$$$$
"1,1,2,2-tetrafluoroethane"	000359-35-3	359-35-3	266
  SciTegic06061110132D

  6  5  0  0  0  0            999 V2000
    0.0000    0.0000    0.0000 F   0  0
    0.0000    0.0000    0.0000 C   0  0
    0.0000    0.0000    0.0000 F   0  0
    0.0000    0.0000    0.0000 C   0  0
    0.0000    0.0000    0.0000 F   0  0
    0.0000    0.0000    0.0000 F   0  0
  1  2  1  0
  2  3  1  0
  2  4  1  0
  4  5  1  0
  4  6  1  0
M  END
> <Name>
"1,1,2,2-tetrafluoroethane"	000359-35-3	359-35-3	266

> <CAS>
000359-35-3

> <HOMO>
-11.91

> <D Path Sum F rel>
1.517241

> <G Cl Br I>
0

> <SeaC2C2aa>
0

> <logOH_exp>
14.28

> <logOH pred>
14.01

> <HAT>
0.176*

> <HAT ref>
0.07

> <Mol Id>
266

> <SMILES>
FC(F)C(F)F

$$$$
hexafluorobenzene	000392-56-3	392-56-3	267
  SciTegic06061110132D

 12 12  0  0  0  0            999 V2000
    0.0000    0.0000    0.0000 F   0  0
    0.0000    0.0000    0.0000 C   0  0
    0.0000    0.0000    0.0000 C   0  0
    0.0000    0.0000    0.0000 F   0  0
    0.0000    0.0000    0.0000 C   0  0
    0.0000    0.0000    0.0000 F   0  0
    0.0000    0.0000    0.0000 C   0  0
    0.0000    0.0000    0.0000 F   0  0
    0.0000    0.0000    0.0000 C   0  0
    0.0000    0.0000    0.0000 F   0  0
    0.0000    0.0000    0.0000 C   0  0
    0.0000    0.0000    0.0000 F   0  0
  1  2  1  0
  2 11  1  0
  2  3  2  3
  3  4  1  0
  3  5  1  0
  5  6  1  0
  5  7  2  3
  7  8  1  0
  7  9  1  0
  9 10  1  0
  9 11  2  3
 11 12  1  0
M  END
> <Name>
hexafluorobenzene	000392-56-3	392-56-3	267

> <CAS>
000392-56-3

> <HOMO>
-10.37

> <D Path Sum F rel>
1.172414

> <G Cl Br I>
0

> <SeaC2C2aa>
0

> <logOH_exp>
12.79

> <logOH pred>
12.5

> <HAT>
0.117*

> <HAT ref>
0.07

> <Mol Id>
267

> <SMILES>
FC1=C(F)C(F)=C(F)C(F)=C1F

$$$$
fluorobenzene	000462-06-6	462-06-6	273
  SciTegic06061110132D

  7  7  0  0  0  0            999 V2000
    0.0000    0.0000    0.0000 F   0  0
    0.0000    0.0000    0.0000 C   0  0
    0.0000    0.0000    0.0000 C   0  0
    0.0000    0.0000    0.0000 C   0  0
    0.0000    0.0000    0.0000 C   0  0
    0.0000    0.0000    0.0000 C   0  0
    0.0000    0.0000    0.0000 C   0  0
  1  2  1  0
  2  7  1  0
  2  3  2  3
  3  4  1  0
  4  5  2  3
  5  6  1  0
  6  7  2  3
M  END
> <Name>
fluorobenzene	000462-06-6	462-06-6	273

> <CAS>
000462-06-6

> <HOMO>
-9.54

> <D Path Sum F rel>
0.3571429

> <G Cl Br I>
0

> <SeaC2C2aa>
10.24249

> <logOH_exp>
12.27

> <logOH pred>
11.45

> <HAT>
0.025

> <HAT ref>
0.07

> <Mol Id>
273

> <SMILES>
FC1=CC=CC=C1

$$$$
diethoxymethane	000462-95-3	462-95-3	274
  SciTegic06061110132D

  7  6  0  0  0  0            999 V2000
    0.0000    0.0000    0.0000 C   0  0
    0.0000    0.0000    0.0000 C   0  0
    0.0000    0.0000    0.0000 O   0  0
    0.0000    0.0000    0.0000 C   0  0
    0.0000    0.0000    0.0000 O   0  0
    0.0000    0.0000    0.0000 C   0  0
    0.0000    0.0000    0.0000 C   0  0
  1  2  1  0
  2  3  1  0
  3  4  1  0
  4  5  1  0
  5  6  1  0
  6  7  1  0
M  END
> <Name>
diethoxymethane	000462-95-3	462-95-3	274

> <CAS>
000462-95-3

> <HOMO>
-10.65

> <D Path Sum F rel>
0

> <G Cl Br I>
0

> <SeaC2C2aa>
0

> <logOH_exp>
10.78

> <logOH pred>
11.17

> <HAT>
0.007

> <HAT ref>
0.07

> <Mol Id>
274

> <SMILES>
CCOCOCC

$$$$
"trans-bicyclo(4,4,0)-decane"	000493-02-7	493-02-7	280
  SciTegic06061110132D

 12 13  0  0  0  0            999 V2000
    0.0000    0.0000    0.0000 C   0  0
    0.0000    0.0000    0.0000 C   0  0
    0.0000    0.0000    0.0000 C   0  0
    0.0000    0.0000    0.0000 C   0  0
    0.0000    0.0000    0.0000 H   0  0
    0.0000    0.0000    0.0000 C   0  0
    0.0000    0.0000    0.0000 C   0  0
    0.0000    0.0000    0.0000 C   0  0
    0.0000    0.0000    0.0000 C   0  0
    0.0000    0.0000    0.0000 C   0  0
    0.0000    0.0000    0.0000 H   0  0
    0.0000    0.0000    0.0000 C   0  0
  1 12  1  0
  1  2  1  0
  2  3  1  0
  3  4  1  0
  4  5  1  0
  4 10  1  0
  4  6  1  0
  6  7  1  0
  7  8  1  0
  8  9  1  0
  9 10  1  0
 10 11  1  0
 10 12  1  0
M  END
> <Name>
"trans-bicyclo(4,4,0)-decane"	000493-02-7	493-02-7	280

> <CAS>
000493-02-7

> <HOMO>
-10.35

> <D Path Sum F rel>
0

> <G Cl Br I>
0

> <SeaC2C2aa>
0

> <logOH_exp>
10.69

> <logOH pred>
10.96

> <HAT>
0.006

> <HAT ref>
0.07

> <Mol Id>
280

> <SMILES>
C1CC[C@H]2CCCC[C@@H]2C1

$$$$
"1,4-benzodioxan"	000493-09-4	493-09-4	281
  SciTegic06061110132D

 10 11  0  0  0  0            999 V2000
    0.0000    0.0000    0.0000 C   0  0
    0.0000    0.0000    0.0000 C   0  0
    0.0000    0.0000    0.0000 O   0  0
    0.0000    0.0000    0.0000 C   0  0
    0.0000    0.0000    0.0000 C   0  0
    0.0000    0.0000    0.0000 O   0  0
    0.0000    0.0000    0.0000 C   0  0
    0.0000    0.0000    0.0000 C   0  0
    0.0000    0.0000    0.0000 C   0  0
    0.0000    0.0000    0.0000 C   0  0
  1  6  1  0
  1  2  1  0
  2  3  1  0
  3  4  1  0
  4 10  1  0
  4  5  2  3
  5  6  1  0
  5  7  1  0
  7  8  2  3
  8  9  1  0
  9 10  2  3
M  END
> <Name>
"1,4-benzodioxan"	000493-09-4	493-09-4	281

> <CAS>
000493-09-4

> <HOMO>
-8.94

> <D Path Sum F rel>
0

> <G Cl Br I>
0

> <SeaC2C2aa>
8.434654

> <logOH_exp>
10.6

> <logOH pred>
10.47

> <HAT>
0.013

> <HAT ref>
0.07

> <Mol Id>
281

> <SMILES>
C1COC2=C(O1)C=CC=C2

$$$$
indane	000496-11-7	496-11-7	282
  SciTegic06061110132D

  9 10  0  0  0  0            999 V2000
    0.0000    0.0000    0.0000 C   0  0
    0.0000    0.0000    0.0000 C   0  0
    0.0000    0.0000    0.0000 C   0  0
    0.0000    0.0000    0.0000 C   0  0
    0.0000    0.0000    0.0000 C   0  0
    0.0000    0.0000    0.0000 C   0  0
    0.0000    0.0000    0.0000 C   0  0
    0.0000    0.0000    0.0000 C   0  0
    0.0000    0.0000    0.0000 C   0  0
  1  5  1  0
  1  2  1  0
  2  3  1  0
  3  9  1  0
  3  4  2  3
  4  5  1  0
  4  6  1  0
  6  7  2  3
  7  8  1  0
  8  9  2  3
M  END
> <Name>
indane	000496-11-7	496-11-7	282

> <CAS>
000496-11-7

> <HOMO>
-9.11

> <D Path Sum F rel>
0

> <G Cl Br I>
0

> <SeaC2C2aa>
9.666419

> <logOH_exp>
11.04

> <logOH pred>
10.66

> <HAT>
0.015

> <HAT ref>
0.07

> <Mol Id>
282

> <SMILES>
C1CC2=C(C1)C=CC=C2

$$$$
"2,3-dihydrobenzofuran"	000496-16-2	496-16-2	283
  SciTegic06061110132D

  9 10  0  0  0  0            999 V2000
    0.0000    0.0000    0.0000 C   0  0
    0.0000    0.0000    0.0000 C   0  0
    0.0000    0.0000    0.0000 C   0  0
    0.0000    0.0000    0.0000 C   0  0
    0.0000    0.0000    0.0000 O   0  0
    0.0000    0.0000    0.0000 C   0  0
    0.0000    0.0000    0.0000 C   0  0
    0.0000    0.0000    0.0000 C   0  0
    0.0000    0.0000    0.0000 C   0  0
  1  5  1  0
  1  2  1  0
  2  3  1  0
  3  9  1  0
  3  4  2  3
  4  5  1  0
  4  6  1  0
  6  7  2  3
  7  8  1  0
  8  9  2  3
M  END
> <Name>
"2,3-dihydrobenzofuran"	000496-16-2	496-16-2	283

> <CAS>
000496-16-2

> <HOMO>
-8.89

> <D Path Sum F rel>
0

> <G Cl Br I>
0

> <SeaC2C2aa>
8.917853

> <logOH_exp>
10.44

> <logOH pred>
10.46

> <HAT>
0.014

> <HAT ref>
0.07

> <Mol Id>
283

> <SMILES>
C1CC2=C(O1)C=CC=C2

$$$$
2-butyne	000503-17-3	503-17-3	285
  SciTegic06061110132D

  4  3  0  0  0  0            999 V2000
    0.0000    0.0000    0.0000 C   0  0
    0.0000    0.0000    0.0000 C   0  0
    0.0000    0.0000    0.0000 C   0  0
    0.0000    0.0000    0.0000 C   0  0
  1  2  1  0
  2  3  3  0
  3  4  1  0
M  END
> <Name>
2-butyne	000503-17-3	503-17-3	285

> <CAS>
000503-17-3

> <HOMO>
-10.17

> <D Path Sum F rel>
0

> <G Cl Br I>
0

> <SeaC2C2aa>
0

> <logOH_exp>
10.53

> <logOH pred>
10.84

> <HAT>
0.006

> <HAT ref>
0.07

> <Mol Id>
285

> <SMILES>
CC#CC

$$$$
2-methyl-2-butene	000513-35-9	513-35-9	288
  SciTegic06061110132D

  5  4  0  0  0  0            999 V2000
    0.0000    0.0000    0.0000 C   0  0
    0.0000    0.0000    0.0000 C   0  0
    0.0000    0.0000    0.0000 C   0  0
    0.0000    0.0000    0.0000 C   0  0
    0.0000    0.0000    0.0000 C   0  0
  1  2  1  0
  2  3  2  3
  3  4  1  0
  3  5  1  0
M  END
> <Name>
2-methyl-2-butene	000513-35-9	513-35-9	288

> <CAS>
000513-35-9

> <HOMO>
-9.24

> <D Path Sum F rel>
0

> <G Cl Br I>
0

> <SeaC2C2aa>
0

> <logOH_exp>
10.06

> <logOH pred>
10.2

> <HAT>
0.013

> <HAT ref>
0.07

> <Mol Id>
288

> <SMILES>
C\C=C(\C)C

$$$$
"1,2,3-trimethylbenzene"	000526-73-8	526-73-8	292
  SciTegic06061110132D

  9  9  0  0  0  0            999 V2000
    0.0000    0.0000    0.0000 C   0  0
    0.0000    0.0000    0.0000 C   0  0
    0.0000    0.0000    0.0000 C   0  0
    0.0000    0.0000    0.0000 C   0  0
    0.0000    0.0000    0.0000 C   0  0
    0.0000    0.0000    0.0000 C   0  0
    0.0000    0.0000    0.0000 C   0  0
    0.0000    0.0000    0.0000 C   0  0
    0.0000    0.0000    0.0000 C   0  0
  1  2  1  0
  2  8  1  0
  2  3  2  3
  3  4  1  0
  4  5  2  3
  5  6  1  0
  6  7  1  0
  6  8  2  3
  8  9  1  0
M  END
> <Name>
"1,2,3-trimethylbenzene"	000526-73-8	526-73-8	292

> <CAS>
000526-73-8

> <HOMO>
-9.14

> <D Path Sum F rel>
0

> <G Cl Br I>
0

> <SeaC2C2aa>
6.404792

> <logOH_exp>
10.49

> <logOH pred>
10.49

> <HAT>
0.009

> <HAT ref>
0.07

> <Mol Id>
292

> <SMILES>
CC1=CC=CC(C)=C1C

$$$$
"2,3-dimethyl phenol"	000526-75-0	526-75-0	293
  SciTegic06061110132D

  9  9  0  0  0  0            999 V2000
    0.0000    0.0000    0.0000 C   0  0
    0.0000    0.0000    0.0000 C   0  0
    0.0000    0.0000    0.0000 C   0  0
    0.0000    0.0000    0.0000 C   0  0
    0.0000    0.0000    0.0000 C   0  0
    0.0000    0.0000    0.0000 C   0  0
    0.0000    0.0000    0.0000 O   0  0
    0.0000    0.0000    0.0000 C   0  0
    0.0000    0.0000    0.0000 C   0  0
  1  2  1  0
  2  8  1  0
  2  3  2  3
  3  4  1  0
  4  5  2  3
  5  6  1  0
  6  7  1  0
  6  8  2  3
  8  9  1  0
M  END
> <Name>
"2,3-dimethyl phenol"	000526-75-0	526-75-0	293

> <CAS>
000526-75-0

> <HOMO>
-8.93

> <D Path Sum F rel>
0

> <G Cl Br I>
0

> <SeaC2C2aa>
5.64757

> <logOH_exp>
10.1

> <logOH pred>
10.31

> <HAT>
0.011

> <HAT ref>
0.07

> <Mol Id>
293

> <SMILES>
CC1=CC=CC(O)=C1C

$$$$
3-methyl-1-butanethiol	000541-31-1	541-31-1	297
  SciTegic06061110132D

  6  5  0  0  0  0            999 V2000
    0.0000    0.0000    0.0000 C   0  0
    0.0000    0.0000    0.0000 C   0  0
    0.0000    0.0000    0.0000 C   0  0
    0.0000    0.0000    0.0000 C   0  0
    0.0000    0.0000    0.0000 C   0  0
    0.0000    0.0000    0.0000 S   0  0
  1  2  1  0
  2  3  1  0
  2  4  1  0
  4  5  1  0
  5  6  1  0
M  END
> <Name>
3-methyl-1-butanethiol	000541-31-1	541-31-1	297

> <CAS>
000541-31-1

> <HOMO>
-8.89

> <D Path Sum F rel>
0

> <G Cl Br I>
0

> <SeaC2C2aa>
0

> <logOH_exp>
10.28

> <logOH pred>
9.96

> <HAT>
0.018

> <HAT ref>
0.07

> <Mol Id>
297

> <SMILES>
CC(C)CCS

$$$$
m-dichlorobenzene	000541-73-1	541-73-1	298
  SciTegic06061110132D

  8  8  0  0  0  0            999 V2000
    0.0000    0.0000    0.0000 Cl  0  0
    0.0000    0.0000    0.0000 C   0  0
    0.0000    0.0000    0.0000 C   0  0
    0.0000    0.0000    0.0000 C   0  0
    0.0000    0.0000    0.0000 Cl  0  0
    0.0000    0.0000    0.0000 C   0  0
    0.0000    0.0000    0.0000 C   0  0
    0.0000    0.0000    0.0000 C   0  0
  1  2  1  0
  2  8  1  0
  2  3  2  3
  3  4  1  0
  4  5  1  0
  4  6  2  3
  6  7  1  0
  7  8  2  3
M  END
> <Name>
m-dichlorobenzene	000541-73-1	541-73-1	298

> <CAS>
000541-73-1

> <HOMO>
-9.68

> <D Path Sum F rel>
0

> <G Cl Br I>
2

> <SeaC2C2aa>
5.223198

> <logOH_exp>
12.14

> <logOH pred>
11.76

> <HAT>
0.048

> <HAT ref>
0.07

> <Mol Id>
298

> <SMILES>
ClC1=CC(Cl)=CC=C1

$$$$
2-methyl-1-propyl nitrite	000542-56-3	542-56-3	299
  SciTegic06061110132D

  7  6  0  0  0  0            999 V2000
    0.0000    0.0000    0.0000 C   0  0
    0.0000    0.0000    0.0000 C   0  0
    0.0000    0.0000    0.0000 C   0  0
    0.0000    0.0000    0.0000 C   0  0
    0.0000    0.0000    0.0000 O   0  0
    0.0000    0.0000    0.0000 N   0  0
    0.0000    0.0000    0.0000 O   0  0
  1  2  1  0
  2  3  1  0
  2  4  1  0
  4  5  1  0
  5  6  1  0
  6  7  2  0
M  END
> <Name>
2-methyl-1-propyl nitrite	000542-56-3	542-56-3	299

> <CAS>
000542-56-3

> <HOMO>
-11.03

> <D Path Sum F rel>
0

> <G Cl Br I>
0

> <SeaC2C2aa>
0

> <logOH_exp>
11.27

> <logOH pred>
11.43

> <HAT>
0.009

> <HAT ref>
0.07

> <Mol Id>
299

> <SMILES>
CC(C)CON=O

$$$$
2-butyl nitrate	000543-29-3	543-29-3	300
  SciTegic06061110132D

  8  7  0  0  0  0            999 V2000
    0.0000    0.0000    0.0000 C   0  0
    0.0000    0.0000    0.0000 C   0  0
    0.0000    0.0000    0.0000 C   0  0
    0.0000    0.0000    0.0000 C   0  0
    0.0000    0.0000    0.0000 O   0  0
    0.0000    0.0000    0.0000 N   0  0
    0.0000    0.0000    0.0000 O   0  0
    0.0000    0.0000    0.0000 O   0  0
  1  2  1  0
  2  3  1  0
  2  4  1  0
  4  5  1  0
  5  6  1  0
  6  7  1  0
  6  8  1  0
M  END
> <Name>
2-butyl nitrate	000543-29-3	543-29-3	300

> <CAS>
000543-29-3

> <HOMO>
-11.85

> <D Path Sum F rel>
0

> <G Cl Br I>
0

> <SeaC2C2aa>
0

> <logOH_exp>
12.17

> <logOH pred>
11.99

> <HAT>
0.02

> <HAT ref>
0.07

> <Mol Id>
300

> <SMILES>
CC(C)CON(O)O

$$$$
propyl nitite	000543-67-9	543-67-9	301
  SciTegic06061110132D

  6  5  0  0  0  0            999 V2000
    0.0000    0.0000    0.0000 C   0  0
    0.0000    0.0000    0.0000 C   0  0
    0.0000    0.0000    0.0000 C   0  0
    0.0000    0.0000    0.0000 O   0  0
    0.0000    0.0000    0.0000 N   0  0
    0.0000    0.0000    0.0000 O   0  0
  1  2  1  0
  2  3  1  0
  3  4  1  0
  4  5  1  0
  5  6  2  0
M  END
> <Name>
propyl nitite	000543-67-9	543-67-9	301

> <CAS>
000543-67-9

> <HOMO>
-11.14

> <D Path Sum F rel>
0

> <G Cl Br I>
0

> <SeaC2C2aa>
0

> <logOH_exp>
11.62

> <logOH pred>
11.5

> <HAT>
0.01

> <HAT ref>
0.07

> <Mol Id>
301

> <SMILES>
CCCON=O

$$$$
butyl nitrite	000544-16-1	544-16-1	302
  SciTegic06061110132D

  7  6  0  0  0  0            999 V2000
    0.0000    0.0000    0.0000 C   0  0
    0.0000    0.0000    0.0000 C   0  0
    0.0000    0.0000    0.0000 C   0  0
    0.0000    0.0000    0.0000 C   0  0
    0.0000    0.0000    0.0000 O   0  0
    0.0000    0.0000    0.0000 N   0  0
    0.0000    0.0000    0.0000 O   0  0
  1  2  1  0
  2  3  1  0
  3  4  1  0
  4  5  1  0
  5  6  1  0
  6  7  2  0
M  END
> <Name>
butyl nitrite	000544-16-1	544-16-1	302

> <CAS>
000544-16-1

> <HOMO>
-11.13

> <D Path Sum F rel>
0

> <G Cl Br I>
0

> <SeaC2C2aa>
0

> <logOH_exp>
11.28

> <logOH pred>
11.5

> <HAT>
0.01

> <HAT ref>
0.07

> <Mol Id>
302

> <SMILES>
CCCCON=O

$$$$
methyl propionate	000554-12-1	554-12-1	304
  SciTegic06061110132D

  6  5  0  0  0  0            999 V2000
    0.0000    0.0000    0.0000 C   0  0
    0.0000    0.0000    0.0000 C   0  0
    0.0000    0.0000    0.0000 C   0  0
    0.0000    0.0000    0.0000 O   0  0
    0.0000    0.0000    0.0000 O   0  0
    0.0000    0.0000    0.0000 C   0  0
  1  2  1  0
  2  3  1  0
  3  4  2  0
  3  5  1  0
  5  6  1  0
M  END
> <Name>
methyl propionate	000554-12-1	554-12-1	304

> <CAS>
000554-12-1

> <HOMO>
-11.29

> <D Path Sum F rel>
0

> <G Cl Br I>
0

> <SeaC2C2aa>
0

> <logOH_exp>
12.57

> <logOH pred>
11.61

> <HAT>
0.012

> <HAT ref>
0.07

> <Mol Id>
304

> <SMILES>
CCC(=O)OC

$$$$
"3,3-dimethyl-1-butene"	000558-37-2	558-37-2	307
  SciTegic06061110132D

  6  5  0  0  0  0            999 V2000
    0.0000    0.0000    0.0000 C   0  0
    0.0000    0.0000    0.0000 C   0  0
    0.0000    0.0000    0.0000 C   0  0
    0.0000    0.0000    0.0000 C   0  0
    0.0000    0.0000    0.0000 C   0  0
    0.0000    0.0000    0.0000 C   0  0
  1  2  1  0
  2  3  1  0
  2  4  1  0
  2  5  1  0
  5  6  2  0
M  END
> <Name>
"3,3-dimethyl-1-butene"	000558-37-2	558-37-2	307

> <CAS>
000558-37-2

> <HOMO>
-10.04

> <D Path Sum F rel>
0

> <G Cl Br I>
0

> <SeaC2C2aa>
0

> <logOH_exp>
10.55

> <logOH pred>
10.75

> <HAT>
0.006

> <HAT ref>
0.07

> <Mol Id>
307

> <SMILES>
CC(C)(C)C=C

$$$$
2-methyl-3-pentanone	000565-69-5	565-69-5	311
  SciTegic06061110132D

  7  6  0  0  0  0            999 V2000
    0.0000    0.0000    0.0000 C   0  0
    0.0000    0.0000    0.0000 C   0  0
    0.0000    0.0000    0.0000 C   0  0
    0.0000    0.0000    0.0000 O   0  0
    0.0000    0.0000    0.0000 C   0  0
    0.0000    0.0000    0.0000 C   0  0
    0.0000    0.0000    0.0000 C   0  0
  1  2  1  0
  2  3  1  0
  3  4  2  0
  3  5  1  0
  5  6  1  0
  5  7  1  0
M  END
> <Name>
2-methyl-3-pentanone	000565-69-5	565-69-5	311

> <CAS>
000565-69-5

> <HOMO>
-10.3

> <D Path Sum F rel>
0

> <G Cl Br I>
0

> <SeaC2C2aa>
0

> <logOH_exp>
10.83

> <logOH pred>
10.93

> <HAT>
0.006

> <HAT ref>
0.07

> <Mol Id>
311

> <SMILES>
CCC(=O)C(C)C

$$$$
"1,4-dimethylnaphthalene"	000571-58-4	571-58-4	314
  SciTegic06061110132D

 12 13  0  0  0  0            999 V2000
    0.0000    0.0000    0.0000 C   0  0
    0.0000    0.0000    0.0000 C   0  0
    0.0000    0.0000    0.0000 C   0  0
    0.0000    0.0000    0.0000 C   0  0
    0.0000    0.0000    0.0000 C   0  0
    0.0000    0.0000    0.0000 C   0  0
    0.0000    0.0000    0.0000 C   0  0
    0.0000    0.0000    0.0000 C   0  0
    0.0000    0.0000    0.0000 C   0  0
    0.0000    0.0000    0.0000 C   0  0
    0.0000    0.0000    0.0000 C   0  0
    0.0000    0.0000    0.0000 C   0  0
  1  2  1  0
  2  8  1  0
  2  3  2  3
  3  4  1  0
  4  5  2  3
  5  6  1  0
  5  7  1  0
  7 12  1  0
  7  8  2  3
  8  9  1  0
  9 10  2  3
 10 11  1  0
 11 12  2  3
M  END
> <Name>
"1,4-dimethylnaphthalene"	000571-58-4	571-58-4	314

> <CAS>
000571-58-4

> <HOMO>
-8.42

> <D Path Sum F rel>
0

> <G Cl Br I>
0

> <SeaC2C2aa>
12.58821

> <logOH_exp>
11.24

> <logOH pred>
10.35

> <HAT>
0.026

> <HAT ref>
0.07

> <Mol Id>
314

> <SMILES>
CC1=CC=C(C)C2=C1C=CC=C2

$$$$
"2,3-dichlorophenol"	000576-24-9	576-24-9	315
  SciTegic06061110132D

  9  9  0  0  0  0            999 V2000
    0.0000    0.0000    0.0000 O   0  0
    0.0000    0.0000    0.0000 C   0  0
    0.0000    0.0000    0.0000 C   0  0
    0.0000    0.0000    0.0000 C   0  0
    0.0000    0.0000    0.0000 C   0  0
    0.0000    0.0000    0.0000 C   0  0
    0.0000    0.0000    0.0000 Cl  0  0
    0.0000    0.0000    0.0000 C   0  0
    0.0000    0.0000    0.0000 Cl  0  0
  1  2  1  0
  2  8  1  0
  2  3  2  3
  3  4  1  0
  4  5  2  3
  5  6  1  0
  6  7  1  0
  6  8  2  3
  8  9  1  0
M  END
> <Name>
"2,3-dichlorophenol"	000576-24-9	576-24-9	315

> <CAS>
000576-24-9

> <HOMO>
-9.39

> <D Path Sum F rel>
0

> <G Cl Br I>
2

> <SeaC2C2aa>
4.784869

> <logOH_exp>
11.78

> <logOH pred>
11.53

> <HAT>
0.05

> <HAT ref>
0.07

> <Mol Id>
315

> <SMILES>
OC1=CC=CC(Cl)=C1Cl

$$$$
"2,3-dimethylnaphthalene"	000581-40-8	581-40-8	317
  SciTegic06061110132D

 12 13  0  0  0  0            999 V2000
    0.0000    0.0000    0.0000 C   0  0
    0.0000    0.0000    0.0000 C   0  0
    0.0000    0.0000    0.0000 C   0  0
    0.0000    0.0000    0.0000 C   0  0
    0.0000    0.0000    0.0000 C   0  0
    0.0000    0.0000    0.0000 C   0  0
    0.0000    0.0000    0.0000 C   0  0
    0.0000    0.0000    0.0000 C   0  0
    0.0000    0.0000    0.0000 C   0  0
    0.0000    0.0000    0.0000 C   0  0
    0.0000    0.0000    0.0000 C   0  0
    0.0000    0.0000    0.0000 C   0  0
  1  2  1  0
  2 11  1  0
  2  3  2  3
  3  4  1  0
  4  9  1  0
  4  5  2  3
  5  6  1  0
  5 10  1  0
  6  7  2  3
  7  8  1  0
  8  9  2  3
 10 11  2  3
 11 12  1  0
M  END
> <Name>
"2,3-dimethylnaphthalene"	000581-40-8	581-40-8	317

> <CAS>
000581-40-8

> <HOMO>
-8.55

> <D Path Sum F rel>
0

> <G Cl Br I>
0

> <SeaC2C2aa>
9.210617

> <logOH_exp>
10.12

> <logOH pred>
10.25

> <HAT>
0.017

> <HAT ref>
0.07

> <Mol Id>
317

> <SMILES>
CC1=CC2=C(C=CC=C2)C=C1C

$$$$
2-nitronaphthalene	000581-89-5	581-89-5	318
  SciTegic06061110132D

 13 14  0  0  0  0            999 V2000
    0.0000    0.0000    0.0000 O   0  0
    0.0000    0.0000    0.0000 N   0  0
    0.0000    0.0000    0.0000 O   0  0
    0.0000    0.0000    0.0000 C   0  0
    0.0000    0.0000    0.0000 C   0  0
    0.0000    0.0000    0.0000 C   0  0
    0.0000    0.0000    0.0000 C   0  0
    0.0000    0.0000    0.0000 C   0  0
    0.0000    0.0000    0.0000 C   0  0
    0.0000    0.0000    0.0000 C   0  0
    0.0000    0.0000    0.0000 C   0  0
    0.0000    0.0000    0.0000 C   0  0
    0.0000    0.0000    0.0000 C   0  0
  1  2  1  0
  2  3  1  0
  2  4  1  0
  4 13  1  0
  4  5  2  3
  5  6  1  0
  6 11  1  0
  6  7  2  3
  7  8  1  0
  7 12  1  0
  8  9  2  3
  9 10  1  0
 10 11  2  3
 12 13  2  3
M  END
> <Name>
2-nitronaphthalene	000581-89-5	581-89-5	318

> <CAS>
000581-89-5

> <HOMO>
-9.43

> <D Path Sum F rel>
0

> <G Cl Br I>
0

> <SeaC2C2aa>
11.06112

> <logOH_exp>
11.25

> <logOH pred>
10.96

> <HAT>
0.019

> <HAT ref>
0.07

> <Mol Id>
318

> <SMILES>
ON(O)C1=CC2=C(C=CC=C2)C=C1

$$$$
3-methyl-1-butanal	000590-86-3	590-86-3	324
  SciTegic06061110132D

  6  5  0  0  0  0            999 V2000
    0.0000    0.0000    0.0000 C   0  0
    0.0000    0.0000    0.0000 C   0  0
    0.0000    0.0000    0.0000 C   0  0
    0.0000    0.0000    0.0000 C   0  0
    0.0000    0.0000    0.0000 C   0  0
    0.0000    0.0000    0.0000 O   0  0
  1  2  1  0
  2  3  1  0
  2  4  1  0
  4  5  1  0
  5  6  2  0
M  END
> <Name>
3-methyl-1-butanal	000590-86-3	590-86-3	324

> <CAS>
000590-86-3

> <HOMO>
-10.55

> <D Path Sum F rel>
0

> <G Cl Br I>
0

> <SeaC2C2aa>
0

> <logOH_exp>
10.54

> <logOH pred>
11.1

> <HAT>
0.006

> <HAT ref>
0.07

> <Mol Id>
324

> <SMILES>
CC(C)CC=O

$$$$
2-hexanone	000591-78-6	591-78-6	327
  SciTegic06061110132D

  7  6  0  0  0  0            999 V2000
    0.0000    0.0000    0.0000 C   0  0
    0.0000    0.0000    0.0000 C   0  0
    0.0000    0.0000    0.0000 C   0  0
    0.0000    0.0000    0.0000 C   0  0
    0.0000    0.0000    0.0000 C   0  0
    0.0000    0.0000    0.0000 C   0  0
    0.0000    0.0000    0.0000 O   0  0
  1  2  1  0
  2  3  1  0
  3  4  1  0
  4  5  1  0
  5  6  1  0
  5  7  2  0
M  END
> <Name>
2-hexanone	000591-78-6	591-78-6	327

> <CAS>
000591-78-6

> <HOMO>
-10.53

> <D Path Sum F rel>
0

> <G Cl Br I>
0

> <SeaC2C2aa>
0

> <logOH_exp>
11.04

> <logOH pred>
11.09

> <HAT>
0.006

> <HAT ref>
0.07

> <Mol Id>
327

> <SMILES>
CCCCC(C)=O

$$$$
"1,4-pentadiene"	000591-93-5	591-93-5	328
  SciTegic06061110132D

  5  4  0  0  0  0            999 V2000
    0.0000    0.0000    0.0000 C   0  0
    0.0000    0.0000    0.0000 C   0  0
    0.0000    0.0000    0.0000 C   0  0
    0.0000    0.0000    0.0000 C   0  0
    0.0000    0.0000    0.0000 C   0  0
  1  2  2  0
  2  3  1  0
  3  4  1  0
  4  5  2  0
M  END
> <Name>
"1,4-pentadiene"	000591-93-5	591-93-5	328

> <CAS>
000591-93-5

> <HOMO>
-9.72

> <D Path Sum F rel>
0

> <G Cl Br I>
0

> <SeaC2C2aa>
0

> <logOH_exp>
10.27

> <logOH pred>
10.53

> <HAT>
0.008

> <HAT ref>
0.07

> <Mol Id>
328

> <SMILES>
C=CCC=C

$$$$
"1,2-pentadiene"	000591-95-7	591-95-7	329
  SciTegic06061110132D

  5  4  0  0  0  0            999 V2000
    0.0000    0.0000    0.0000 C   0  0
    0.0000    0.0000    0.0000 C   0  0
    0.0000    0.0000    0.0000 C   0  0
    0.0000    0.0000    0.0000 C   0  0
    0.0000    0.0000    0.0000 C   0  0
  1  2  1  0
  2  3  1  0
  3  4  2  0
  4  5  2  0
M  END
> <Name>
"1,2-pentadiene"	000591-95-7	591-95-7	329

> <CAS>
000591-95-7

> <HOMO>
-9.68

> <D Path Sum F rel>
0

> <G Cl Br I>
0

> <SeaC2C2aa>
0

> <logOH_exp>
10.45

> <logOH pred>
10.5

> <HAT>
0.008

> <HAT ref>
0.07

> <Mol Id>
329

> <SMILES>
CCC=C=C

$$$$
1-hexene	000592-41-6	592-41-6	330
  SciTegic06061110132D

  6  5  0  0  0  0            999 V2000
    0.0000    0.0000    0.0000 C   0  0
    0.0000    0.0000    0.0000 C   0  0
    0.0000    0.0000    0.0000 C   0  0
    0.0000    0.0000    0.0000 C   0  0
    0.0000    0.0000    0.0000 C   0  0
    0.0000    0.0000    0.0000 C   0  0
  1  2  1  0
  2  3  1  0
  3  4  1  0
  4  5  1  0
  5  6  2  0
M  END
> <Name>
1-hexene	000592-41-6	592-41-6	330

> <CAS>
000592-41-6

> <HOMO>
-9.99

> <D Path Sum F rel>
0

> <G Cl Br I>
0

> <SeaC2C2aa>
0

> <logOH_exp>
10.43

> <logOH pred>
10.71

> <HAT>
0.007

> <HAT ref>
0.07

> <Mol Id>
330

> <SMILES>
CCCCC=C

$$$$
"1,3-cyclohexadiene"	000592-57-4	592-57-4	333
  SciTegic06061110132D

  6  6  0  0  0  0            999 V2000
    0.0000    0.0000    0.0000 C   0  0
    0.0000    0.0000    0.0000 C   0  0
    0.0000    0.0000    0.0000 C   0  0
    0.0000    0.0000    0.0000 C   0  0
    0.0000    0.0000    0.0000 C   0  0
    0.0000    0.0000    0.0000 C   0  0
  1  6  1  0
  1  2  1  0
  2  3  1  0
  3  4  2  3
  4  5  1  0
  5  6  2  3
M  END
> <Name>
"1,3-cyclohexadiene"	000592-57-4	592-57-4	333

> <CAS>
000592-57-4

> <HOMO>
-8.76

> <D Path Sum F rel>
0

> <G Cl Br I>
0

> <SeaC2C2aa>
0

> <logOH_exp>
9.79

> <logOH pred>
9.87

> <HAT>
0.02

> <HAT ref>
0.07

> <Mol Id>
333

> <SMILES>
C1CC=CC=C1

$$$$
butyl formate	000592-84-7	592-84-7	335
  SciTegic06061110132D

  7  6  0  0  0  0            999 V2000
    0.0000    0.0000    0.0000 C   0  0
    0.0000    0.0000    0.0000 C   0  0
    0.0000    0.0000    0.0000 C   0  0
    0.0000    0.0000    0.0000 C   0  0
    0.0000    0.0000    0.0000 O   0  0
    0.0000    0.0000    0.0000 C   0  0
    0.0000    0.0000    0.0000 O   0  0
  1  2  1  0
  2  3  1  0
  3  4  1  0
  4  5  1  0
  5  6  1  0
  6  7  2  0
M  END
> <Name>
butyl formate	000592-84-7	592-84-7	335

> <CAS>
000592-84-7

> <HOMO>
-11.21

> <D Path Sum F rel>
0

> <G Cl Br I>
0

> <SeaC2C2aa>
0

> <logOH_exp>
11.51

> <logOH pred>
11.55

> <HAT>
0.011

> <HAT ref>
0.07

> <Mol Id>
335

> <SMILES>
CCCCOC=O

$$$$
oxepane	000592-90-5	592-90-5	336
  SciTegic06061110132D

  7  7  0  0  0  0            999 V2000
    0.0000    0.0000    0.0000 C   0  0
    0.0000    0.0000    0.0000 C   0  0
    0.0000    0.0000    0.0000 C   0  0
    0.0000    0.0000    0.0000 C   0  0
    0.0000    0.0000    0.0000 O   0  0
    0.0000    0.0000    0.0000 C   0  0
    0.0000    0.0000    0.0000 C   0  0
  1  7  1  0
  1  2  1  0
  2  3  1  0
  3  4  1  0
  4  5  1  0
  5  6  1  0
  6  7  1  0
M  END
> <Name>
oxepane	000592-90-5	592-90-5	336

> <CAS>
000592-90-5

> <HOMO>
-10.28

> <D Path Sum F rel>
0

> <G Cl Br I>
0

> <SeaC2C2aa>
0

> <logOH_exp>
10.81

> <logOH pred>
10.91

> <HAT>
0.006

> <HAT ref>
0.07

> <Mol Id>
336

> <SMILES>
C1CCCOCC1

$$$$
1-bromoethene	000593-60-2	593-60-2	338
  SciTegic06061110132D

  3  2  0  0  0  0            999 V2000
    0.0000    0.0000    0.0000 Br  0  0
    0.0000    0.0000    0.0000 C   0  0
    0.0000    0.0000    0.0000 C   0  0
  1  2  1  0
  2  3  2  0
M  END
> <Name>
1-bromoethene	000593-60-2	593-60-2	338

> <CAS>
000593-60-2

> <HOMO>
-10.15

> <D Path Sum F rel>
0

> <G Cl Br I>
1

> <SeaC2C2aa>
0

> <logOH_exp>
11.17

> <logOH pred>
11.3

> <HAT>
0.014

> <HAT ref>
0.07

> <Mol Id>
338

> <SMILES>
BrC=C

$$$$
"2,2-dichloropropane"	000594-20-7	594-20-7	340
  SciTegic06061110132D

  5  4  0  0  0  0            999 V2000
    0.0000    0.0000    0.0000 C   0  0
    0.0000    0.0000    0.0000 C   0  0
    0.0000    0.0000    0.0000 C   0  0
    0.0000    0.0000    0.0000 Cl  0  0
    0.0000    0.0000    0.0000 Cl  0  0
  1  2  1  0
  2  3  1  0
  2  4  1  0
  2  5  1  0
M  END
> <Name>
"2,2-dichloropropane"	000594-20-7	594-20-7	340

> <CAS>
000594-20-7

> <HOMO>
-11.54

> <D Path Sum F rel>
0

> <G Cl Br I>
2

> <SeaC2C2aa>
0

> <logOH_exp>
13.1

> <logOH pred>
12.74

> <HAT>
0.048

> <HAT ref>
0.07

> <Mol Id>
340

> <SMILES>
CC(C)(Cl)Cl

$$$$
dimethylketene	000598-26-5	598-26-5	343
  SciTegic06061110132D

  5  4  0  0  0  0            999 V2000
    0.0000    0.0000    0.0000 C   0  0
    0.0000    0.0000    0.0000 C   0  0
    0.0000    0.0000    0.0000 C   0  0
    0.0000    0.0000    0.0000 C   0  0
    0.0000    0.0000    0.0000 O   0  0
  1  2  1  0
  2  3  1  0
  2  4  2  0
  4  5  2  0
M  END
> <Name>
dimethylketene	000598-26-5	598-26-5	343

> <CAS>
000598-26-5

> <HOMO>
-8.89

> <D Path Sum F rel>
0

> <G Cl Br I>
0

> <SeaC2C2aa>
0

> <logOH_exp>
9.97

> <logOH pred>
9.96

> <HAT>
0.018

> <HAT ref>
0.07

> <Mol Id>
343

> <SMILES>
CC(C)=C=O

$$$$
methyl nitrate	000598-58-3	598-58-3	344
  SciTegic06061110132D

  5  4  0  0  0  0            999 V2000
    0.0000    0.0000    0.0000 C   0  0
    0.0000    0.0000    0.0000 O   0  0
    0.0000    0.0000    0.0000 N   0  0
    0.0000    0.0000    0.0000 O   0  0
    0.0000    0.0000    0.0000 O   0  0
  1  2  1  0
  2  3  1  0
  3  4  1  0
  3  5  1  0
M  END
> <Name>
methyl nitrate	000598-58-3	598-58-3	344

> <CAS>
000598-58-3

> <HOMO>
-12.55

> <D Path Sum F rel>
0

> <G Cl Br I>
0

> <SeaC2C2aa>
0

> <logOH_exp>
13.47

> <logOH pred>
12.47

> <HAT>
0.036

> <HAT ref>
0.07

> <Mol Id>
344

> <SMILES>
CON(O)O

$$$$
"1,3-Ethylmethylbenzene"	000620-14-4	620-14-4	347
  SciTegic06061110132D

  9  9  0  0  0  0            999 V2000
    0.0000    0.0000    0.0000 C   0  0
    0.0000    0.0000    0.0000 C   0  0
    0.0000    0.0000    0.0000 C   0  0
    0.0000    0.0000    0.0000 C   0  0
    0.0000    0.0000    0.0000 C   0  0
    0.0000    0.0000    0.0000 C   0  0
    0.0000    0.0000    0.0000 C   0  0
    0.0000    0.0000    0.0000 C   0  0
    0.0000    0.0000    0.0000 C   0  0
  1  2  1  0
  2  3  1  0
  3  9  1  0
  3  4  2  3
  4  5  1  0
  5  6  2  3
  6  7  1  0
  7  8  1  0
  7  9  2  3
M  END
> <Name>
"1,3-Ethylmethylbenzene"	000620-14-4	620-14-4	347

> <CAS>
000620-14-4

> <HOMO>
-9.22

> <D Path Sum F rel>
0

> <G Cl Br I>
0

> <SeaC2C2aa>
6.425822

> <logOH_exp>
10.77

> <logOH pred>
10.55

> <HAT>
0.009

> <HAT ref>
0.07

> <Mol Id>
347

> <SMILES>
CCC1=CC=CC(C)=C1

$$$$
"N,N'-diphenyl-methylenediamine"	000622-14-0	622-14-0	348
  SciTegic06061110132D

 15 16  0  0  0  0            999 V2000
    0.0000    0.0000    0.0000 C   0  0
    0.0000    0.0000    0.0000 N   0  0
    0.0000    0.0000    0.0000 C   0  0
    0.0000    0.0000    0.0000 C   0  0
    0.0000    0.0000    0.0000 C   0  0
    0.0000    0.0000    0.0000 C   0  0
    0.0000    0.0000    0.0000 C   0  0
    0.0000    0.0000    0.0000 C   0  0
    0.0000    0.0000    0.0000 N   0  0
    0.0000    0.0000    0.0000 C   0  0
    0.0000    0.0000    0.0000 C   0  0
    0.0000    0.0000    0.0000 C   0  0
    0.0000    0.0000    0.0000 C   0  0
    0.0000    0.0000    0.0000 C   0  0
    0.0000    0.0000    0.0000 C   0  0
  1  2  1  0
  1  9  1  0
  2  3  1  0
  3  8  1  0
  3  4  2  3
  4  5  1  0
  5  6  2  3
  6  7  1  0
  7  8  2  3
  9 10  1  0
 10 15  1  0
 10 11  2  3
 11 12  1  0
 12 13  2  3
 13 14  1  0
 14 15  2  3
M  END
> <Name>
"N,N'-diphenyl-methylenediamine"	000622-14-0	622-14-0	348

> <CAS>
000622-14-0

> <HOMO>
-8.51

> <D Path Sum F rel>
0

> <G Cl Br I>
0

> <SeaC2C2aa>
24.03211

> <logOH_exp>
10.52

> <logOH pred>
11.06

> <HAT>
0.092*

> <HAT ref>
0.07

> <Mol Id>
348

> <SMILES>
C(NC1=CC=CC=C1)NC1=CC=CC=C1

$$$$
methyl butyrate	000623-42-7	623-42-7	350
  SciTegic06061110132D

  7  6  0  0  0  0            999 V2000
    0.0000    0.0000    0.0000 C   0  0
    0.0000    0.0000    0.0000 C   0  0
    0.0000    0.0000    0.0000 C   0  0
    0.0000    0.0000    0.0000 C   0  0
    0.0000    0.0000    0.0000 O   0  0
    0.0000    0.0000    0.0000 O   0  0
    0.0000    0.0000    0.0000 C   0  0
  1  2  1  0
  2  3  1  0
  3  4  1  0
  4  5  2  0
  4  6  1  0
  6  7  1  0
M  END
> <Name>
methyl butyrate	000623-42-7	623-42-7	350

> <CAS>
000623-42-7

> <HOMO>
-11.29

> <D Path Sum F rel>
0

> <G Cl Br I>
0

> <SeaC2C2aa>
0

> <logOH_exp>
11.52

> <logOH pred>
11.61

> <HAT>
0.012

> <HAT ref>
0.07

> <Mol Id>
350

> <SMILES>
CCCC(=O)OC

$$$$
"1,2-difluoroethane"	000624-72-6	624-72-6	352
  SciTegic06061110132D

  4  3  0  0  0  0            999 V2000
    0.0000    0.0000    0.0000 F   0  0
    0.0000    0.0000    0.0000 C   0  0
    0.0000    0.0000    0.0000 C   0  0
    0.0000    0.0000    0.0000 F   0  0
  1  2  1  0
  2  3  1  0
  3  4  1  0
M  END
> <Name>
"1,2-difluoroethane"	000624-72-6	624-72-6	352

> <CAS>
000624-72-6

> <HOMO>
-11.83

> <D Path Sum F rel>
1.2

> <G Cl Br I>
0

> <SeaC2C2aa>
0

> <logOH_exp>
12.95

> <logOH pred>
13.54

> <HAT>
0.11*

> <HAT ref>
0.07

> <Mol Id>
352

> <SMILES>
FCCF

$$$$
ethyl methyl sulfide	000624-89-5	624-89-5	353
  SciTegic06061110132D

  4  3  0  0  0  0            999 V2000
    0.0000    0.0000    0.0000 C   0  0
    0.0000    0.0000    0.0000 C   0  0
    0.0000    0.0000    0.0000 S   0  0
    0.0000    0.0000    0.0000 C   0  0
  1  2  1  0
  2  3  1  0
  3  4  1  0
M  END
> <Name>
ethyl methyl sulfide	000624-89-5	624-89-5	353

> <CAS>
000624-89-5

> <HOMO>
-8.46

> <D Path Sum F rel>
0

> <G Cl Br I>
0

> <SeaC2C2aa>
0

> <logOH_exp>
11.07

> <logOH pred>
9.66

> <HAT>
0.026

> <HAT ref>
0.07

> <Mol Id>
353

> <SMILES>
CCSC

$$$$
dimethyl disulfide	000624-92-0	624-92-0	354
  SciTegic06061110132D

  4  3  0  0  0  0            999 V2000
    0.0000    0.0000    0.0000 C   0  0
    0.0000    0.0000    0.0000 S   0  0
    0.0000    0.0000    0.0000 S   0  0
    0.0000    0.0000    0.0000 C   0  0
  1  2  1  0
  2  3  1  0
  3  4  1  0
M  END
> <Name>
dimethyl disulfide	000624-92-0	624-92-0	354

> <CAS>
000624-92-0

> <HOMO>
-8.19

> <D Path Sum F rel>
0

> <G Cl Br I>
0

> <SeaC2C2aa>
0

> <logOH_exp>
9.7

> <logOH pred>
9.48

> <HAT>
0.033

> <HAT ref>
0.07

> <Mol Id>
354

> <SMILES>
CSSC

$$$$
1-nitrobutane	000627-05-4	627-05-4	358
  SciTegic06061110132D

  7  6  0  0  0  0            999 V2000
    0.0000    0.0000    0.0000 C   0  0
    0.0000    0.0000    0.0000 C   0  0
    0.0000    0.0000    0.0000 C   0  0
    0.0000    0.0000    0.0000 C   0  0
    0.0000    0.0000    0.0000 N   0  0
    0.0000    0.0000    0.0000 O   0  0
    0.0000    0.0000    0.0000 O   0  0
  1  2  1  0
  2  3  1  0
  3  4  1  0
  4  5  1  0
  5  6  1  0
  5  7  1  0
M  END
> <Name>
1-nitrobutane	000627-05-4	627-05-4	358

> <CAS>
000627-05-4

> <HOMO>
-11.69

> <D Path Sum F rel>
0

> <G Cl Br I>
0

> <SeaC2C2aa>
0

> <logOH_exp>
11.81

> <logOH pred>
11.88

> <HAT>
0.018

> <HAT ref>
0.07

> <Mol Id>
358

> <SMILES>
CCCCN(O)O

$$$$
1-pentyne	000627-19-0	627-19-0	360
  SciTegic06061110132D

  5  4  0  0  0  0            999 V2000
    0.0000    0.0000    0.0000 C   0  0
    0.0000    0.0000    0.0000 C   0  0
    0.0000    0.0000    0.0000 C   0  0
    0.0000    0.0000    0.0000 C   0  0
    0.0000    0.0000    0.0000 C   0  0
  1  2  1  0
  2  3  1  0
  3  4  1  0
  4  5  3  0
M  END
> <Name>
1-pentyne	000627-19-0	627-19-0	360

> <CAS>
000627-19-0

> <HOMO>
-10.61

> <D Path Sum F rel>
0

> <G Cl Br I>
0

> <SeaC2C2aa>
0

> <logOH_exp>
10.95

> <logOH pred>
11.14

> <HAT>
0.007

> <HAT ref>
0.07

> <Mol Id>
360

> <SMILES>
CCCC#C

$$$$
cis-2-pentene	000627-20-3	627-20-3	361
  SciTegic06061110132D

  5  4  0  0  0  0            999 V2000
    0.0000    0.0000    0.0000 C   0  0
    0.0000    0.0000    0.0000 C   0  0
    0.0000    0.0000    0.0000 C   0  0
    0.0000    0.0000    0.0000 C   0  0
    0.0000    0.0000    0.0000 C   0  0
  1  2  1  0
  2  3  1  0
  3  4  2  3
  4  5  1  0
M  END
> <Name>
cis-2-pentene	000627-20-3	627-20-3	361

> <CAS>
000627-20-3

> <HOMO>
-9.53

> <D Path Sum F rel>
0

> <G Cl Br I>
0

> <SeaC2C2aa>
0

> <logOH_exp>
10.18

> <logOH pred>
10.4

> <HAT>
0.01

> <HAT ref>
0.07

> <Mol Id>
361

> <SMILES>
CC\C=C/C

$$$$
1-nitropentane	000628-05-7	628-05-7	363
  SciTegic06061110132D

  8  7  0  0  0  0            999 V2000
    0.0000    0.0000    0.0000 C   0  0
    0.0000    0.0000    0.0000 C   0  0
    0.0000    0.0000    0.0000 C   0  0
    0.0000    0.0000    0.0000 C   0  0
    0.0000    0.0000    0.0000 C   0  0
    0.0000    0.0000    0.0000 N   0  0
    0.0000    0.0000    0.0000 O   0  0
    0.0000    0.0000    0.0000 O   0  0
  1  2  1  0
  2  3  1  0
  3  4  1  0
  4  5  1  0
  5  6  1  0
  6  7  1  0
  6  8  1  0
M  END
> <Name>
1-nitropentane	000628-05-7	628-05-7	363

> <CAS>
000628-05-7

> <HOMO>
-11.64

> <D Path Sum F rel>
0

> <G Cl Br I>
0

> <SeaC2C2aa>
0

> <logOH_exp>
11.48

> <logOH pred>
11.85

> <HAT>
0.017

> <HAT ref>
0.07

> <Mol Id>
363

> <SMILES>
CCCCCN(O)O

$$$$
methyl-butyl-ether	000628-28-4	628-28-4	364
  SciTegic06061110132D

  6  5  0  0  0  0            999 V2000
    0.0000    0.0000    0.0000 C   0  0
    0.0000    0.0000    0.0000 C   0  0
    0.0000    0.0000    0.0000 C   0  0
    0.0000    0.0000    0.0000 C   0  0
    0.0000    0.0000    0.0000 O   0  0
    0.0000    0.0000    0.0000 C   0  0
  1  2  1  0
  2  3  1  0
  3  4  1  0
  4  5  1  0
  5  6  1  0
M  END
> <Name>
methyl-butyl-ether	000628-28-4	628-28-4	364

> <CAS>
000628-28-4

> <HOMO>
-10.49

> <D Path Sum F rel>
0

> <G Cl Br I>
0

> <SeaC2C2aa>
0

> <logOH_exp>
10.79

> <logOH pred>
11.06

> <HAT>
0.006

> <HAT ref>
0.07

> <Mol Id>
364

> <SMILES>
CCCCOC

$$$$
"1,4-cyclohexadiene"	000628-41-1	628-41-1	365
  SciTegic06061110132D

  6  6  0  0  0  0            999 V2000
    0.0000    0.0000    0.0000 C   0  0
    0.0000    0.0000    0.0000 C   0  0
    0.0000    0.0000    0.0000 C   0  0
    0.0000    0.0000    0.0000 C   0  0
    0.0000    0.0000    0.0000 C   0  0
    0.0000    0.0000    0.0000 C   0  0
  1  6  1  0
  1  2  1  0
  2  3  2  3
  3  4  1  0
  4  5  1  0
  5  6  2  3
M  END
> <Name>
"1,4-cyclohexadiene"	000628-41-1	628-41-1	365

> <CAS>
000628-41-1

> <HOMO>
-9.12

> <D Path Sum F rel>
0

> <G Cl Br I>
0

> <SeaC2C2aa>
0

> <logOH_exp>
10

> <logOH pred>
10.12

> <HAT>
0.014

> <HAT ref>
0.07

> <Mol Id>
365

> <SMILES>
C1C=CCC=C1

$$$$
cycloheptene	000628-92-2	628-92-2	368
  SciTegic06061110132D

  7  7  0  0  0  0            999 V2000
    0.0000    0.0000    0.0000 C   0  0
    0.0000    0.0000    0.0000 C   0  0
    0.0000    0.0000    0.0000 C   0  0
    0.0000    0.0000    0.0000 C   0  0
    0.0000    0.0000    0.0000 C   0  0
    0.0000    0.0000    0.0000 C   0  0
    0.0000    0.0000    0.0000 C   0  0
  1  7  1  0
  1  2  1  0
  2  3  1  0
  3  4  1  0
  4  5  2  3
  5  6  1  0
  6  7  1  0
M  END
> <Name>
cycloheptene	000628-92-2	628-92-2	368

> <CAS>
000628-92-2

> <HOMO>
-9.54

> <D Path Sum F rel>
0

> <G Cl Br I>
0

> <SeaC2C2aa>
0

> <logOH_exp>
10.13

> <logOH pred>
10.4

> <HAT>
0.01

> <HAT ref>
0.07

> <Mol Id>
368

> <SMILES>
C1CCC=CCC1

$$$$
n-tridecane	000629-50-5	629-50-5	369
  SciTegic06061110132D

 13 12  0  0  0  0            999 V2000
    0.0000    0.0000    0.0000 C   0  0
    0.0000    0.0000    0.0000 C   0  0
    0.0000    0.0000    0.0000 C   0  0
    0.0000    0.0000    0.0000 C   0  0
    0.0000    0.0000    0.0000 C   0  0
    0.0000    0.0000    0.0000 C   0  0
    0.0000    0.0000    0.0000 C   0  0
    0.0000    0.0000    0.0000 C   0  0
    0.0000    0.0000    0.0000 C   0  0
    0.0000    0.0000    0.0000 C   0  0
    0.0000    0.0000    0.0000 C   0  0
    0.0000    0.0000    0.0000 C   0  0
    0.0000    0.0000    0.0000 C   0  0
  1  2  1  0
  2  3  1  0
  3  4  1  0
  4  5  1  0
  5  6  1  0
  6  7  1  0
  7  8  1  0
  8  9  1  0
  9 10  1  0
 10 11  1  0
 11 12  1  0
 12 13  1  0
M  END
> <Name>
n-tridecane	000629-50-5	629-50-5	369

> <CAS>
000629-50-5

> <HOMO>
-11.03

> <D Path Sum F rel>
0

> <G Cl Br I>
0

> <SeaC2C2aa>
0

> <logOH_exp>
11.81

> <logOH pred>
11.43

> <HAT>
0.009

> <HAT ref>
0.07

> <Mol Id>
369

> <SMILES>
CCCCCCCCCCCCC

$$$$
trans-4-methyl-2-pentene	000674-76-0	674-76-0	373
  SciTegic06061110132D

  6  5  0  0  0  0            999 V2000
    0.0000    0.0000    0.0000 C   0  0
    0.0000    0.0000    0.0000 C   0  0
    0.0000    0.0000    0.0000 C   0  0
    0.0000    0.0000    0.0000 C   0  0
    0.0000    0.0000    0.0000 C   0  0
    0.0000    0.0000    0.0000 C   0  0
  1  2  1  0
  2  3  2  3
  3  4  1  0
  4  5  1  0
  4  6  1  0
M  END
> <Name>
trans-4-methyl-2-pentene	000674-76-0	674-76-0	373

> <CAS>
000674-76-0

> <HOMO>
-9.62

> <D Path Sum F rel>
0

> <G Cl Br I>
0

> <SeaC2C2aa>
0

> <logOH_exp>
10.22

> <logOH pred>
10.46

> <HAT>
0.009

> <HAT ref>
0.07

> <Mol Id>
373

> <SMILES>
CC=CC(C)C

$$$$
1-hexyne	000693-02-7	693-02-7	375
  SciTegic06061110132D

  6  5  0  0  0  0            999 V2000
    0.0000    0.0000    0.0000 C   0  0
    0.0000    0.0000    0.0000 C   0  0
    0.0000    0.0000    0.0000 C   0  0
    0.0000    0.0000    0.0000 C   0  0
    0.0000    0.0000    0.0000 C   0  0
    0.0000    0.0000    0.0000 C   0  0
  1  2  1  0
  2  3  1  0
  3  4  1  0
  4  5  1  0
  5  6  3  0
M  END
> <Name>
1-hexyne	000693-02-7	693-02-7	375

> <CAS>
000693-02-7

> <HOMO>
-10.62

> <D Path Sum F rel>
0

> <G Cl Br I>
0

> <SeaC2C2aa>
0

> <logOH_exp>
10.9

> <logOH pred>
11.15

> <HAT>
0.007

> <HAT ref>
0.07

> <Mol Id>
375

> <SMILES>
CCCCC#C

$$$$
2-methyl-1-pentene	000763-29-1	763-29-1	379
  SciTegic06061110132D

  6  5  0  0  0  0            999 V2000
    0.0000    0.0000    0.0000 C   0  0
    0.0000    0.0000    0.0000 C   0  0
    0.0000    0.0000    0.0000 C   0  0
    0.0000    0.0000    0.0000 C   0  0
    0.0000    0.0000    0.0000 C   0  0
    0.0000    0.0000    0.0000 C   0  0
  1  2  1  0
  2  3  1  0
  3  4  1  0
  4  5  1  0
  4  6  2  0
M  END
> <Name>
2-methyl-1-pentene	000763-29-1	763-29-1	379

> <CAS>
000763-29-1

> <HOMO>
-9.51

> <D Path Sum F rel>
0

> <G Cl Br I>
0

> <SeaC2C2aa>
0

> <logOH_exp>
10.2

> <logOH pred>
10.38

> <HAT>
0.01

> <HAT ref>
0.07

> <Mol Id>
379

> <SMILES>
CCCC(C)=C

$$$$
"trans-1,3,5-hexatriene"	000821-07-8	821-07-8	384
  SciTegic06061110132D

  6  5  0  0  0  0            999 V2000
    0.0000    0.0000    0.0000 C   0  0
    0.0000    0.0000    0.0000 C   0  0
    0.0000    0.0000    0.0000 C   0  0
    0.0000    0.0000    0.0000 C   0  0
    0.0000    0.0000    0.0000 C   0  0
    0.0000    0.0000    0.0000 C   0  0
  1  2  2  0
  2  3  1  0
  3  4  2  3
  4  5  1  0
  5  6  2  0
M  END
> <Name>
"trans-1,3,5-hexatriene"	000821-07-8	821-07-8	384

> <CAS>
000821-07-8

> <HOMO>
-8.75

> <D Path Sum F rel>
0

> <G Cl Br I>
0

> <SeaC2C2aa>
0

> <logOH_exp>
9.96

> <logOH pred>
9.86

> <HAT>
0.02

> <HAT ref>
0.07

> <Mol Id>
384

> <SMILES>
C=C\C=C\C=C

$$$$
2-nonanone	000821-55-6	821-55-6	385
  SciTegic06061110132D

 10  9  0  0  0  0            999 V2000
    0.0000    0.0000    0.0000 C   0  0
    0.0000    0.0000    0.0000 C   0  0
    0.0000    0.0000    0.0000 C   0  0
    0.0000    0.0000    0.0000 C   0  0
    0.0000    0.0000    0.0000 C   0  0
    0.0000    0.0000    0.0000 C   0  0
    0.0000    0.0000    0.0000 C   0  0
    0.0000    0.0000    0.0000 C   0  0
    0.0000    0.0000    0.0000 C   0  0
    0.0000    0.0000    0.0000 O   0  0
  1  2  1  0
  2  3  1  0
  3  4  1  0
  4  5  1  0
  5  6  1  0
  6  7  1  0
  7  8  1  0
  8  9  1  0
  8 10  2  0
M  END
> <Name>
2-nonanone	000821-55-6	821-55-6	385

> <CAS>
000821-55-6

> <HOMO>
-10.51

> <D Path Sum F rel>
0

> <G Cl Br I>
0

> <SeaC2C2aa>
0

> <logOH_exp>
10.91

> <logOH pred>
11.07

> <HAT>
0.006

> <HAT ref>
0.07

> <Mol Id>
385

> <SMILES>
CCCCCCCC(C)=O

$$$$
trans-b-methylstyrene	000873-66-5	873-66-5	386
  SciTegic06061110132D

  9  9  0  0  0  0            999 V2000
    0.0000    0.0000    0.0000 C   0  0
    0.0000    0.0000    0.0000 C   0  0
    0.0000    0.0000    0.0000 C   0  0
    0.0000    0.0000    0.0000 C   0  0
    0.0000    0.0000    0.0000 C   0  0
    0.0000    0.0000    0.0000 C   0  0
    0.0000    0.0000    0.0000 C   0  0
    0.0000    0.0000    0.0000 C   0  0
    0.0000    0.0000    0.0000 C   0  0
  1  2  1  0
  2  3  2  3
  3  4  1  0
  4  9  1  0
  4  5  2  3
  5  6  1  0
  6  7  2  3
  7  8  1  0
  8  9  2  3
M  END
> <Name>
trans-b-methylstyrene	000873-66-5	873-66-5	386

> <CAS>
000873-66-5

> <HOMO>
-8.79

> <D Path Sum F rel>
0

> <G Cl Br I>
0

> <SeaC2C2aa>
11.91383

> <logOH_exp>
10.23

> <logOH pred>
10.57

> <HAT>
0.022

> <HAT ref>
0.07

> <Mol Id>
386

> <SMILES>
CC=CC1=CC=CC=C1

$$$$
sec-butyl nitrite	000924-43-6	924-43-6	387
  SciTegic06061110132D

  8  7  0  0  0  0            999 V2000
    0.0000    0.0000    0.0000 C   0  0
    0.0000    0.0000    0.0000 C   0  0
    0.0000    0.0000    0.0000 C   0  0
    0.0000    0.0000    0.0000 H   0  0
    0.0000    0.0000    0.0000 C   0  0
    0.0000    0.0000    0.0000 O   0  0
    0.0000    0.0000    0.0000 N   0  0
    0.0000    0.0000    0.0000 O   0  0
  1  2  1  0
  2  3  1  0
  3  4  1  0
  3  5  1  0
  3  6  1  0
  6  7  1  0
  7  8  2  0
M  END
> <Name>
sec-butyl nitrite	000924-43-6	924-43-6	387

> <CAS>
000924-43-6

> <HOMO>
-11.01

> <D Path Sum F rel>
0

> <G Cl Br I>
0

> <SeaC2C2aa>
0

> <logOH_exp>
11.22

> <logOH pred>
11.42

> <HAT>
0.009

> <HAT ref>
0.07

> <Mol Id>
387

> <SMILES>
CC[C@H](C)ON=O

$$$$
"4-methyl-1,3-pentadiene"	000926-56-7	926-56-7	389
  SciTegic06061110132D

  6  5  0  0  0  0            999 V2000
    0.0000    0.0000    0.0000 C   0  0
    0.0000    0.0000    0.0000 C   0  0
    0.0000    0.0000    0.0000 C   0  0
    0.0000    0.0000    0.0000 C   0  0
    0.0000    0.0000    0.0000 C   0  0
    0.0000    0.0000    0.0000 C   0  0
  1  2  1  0
  2  3  1  0
  2  4  2  3
  4  5  1  0
  5  6  2  0
M  END
> <Name>
"4-methyl-1,3-pentadiene"	000926-56-7	926-56-7	389

> <CAS>
000926-56-7

> <HOMO>
-8.83

> <D Path Sum F rel>
0

> <G Cl Br I>
0

> <SeaC2C2aa>
0

> <logOH_exp>
9.88

> <logOH pred>
9.92

> <HAT>
0.019

> <HAT ref>
0.07

> <Mol Id>
389

> <SMILES>
C\C(C)=C\C=C

$$$$
n-butyl nitrate	000928-45-0	928-45-0	390
  SciTegic06061110132D

  8  7  0  0  0  0            999 V2000
    0.0000    0.0000    0.0000 C   0  0
    0.0000    0.0000    0.0000 C   0  0
    0.0000    0.0000    0.0000 C   0  0
    0.0000    0.0000    0.0000 C   0  0
    0.0000    0.0000    0.0000 O   0  0
    0.0000    0.0000    0.0000 N   0  0
    0.0000    0.0000    0.0000 O   0  0
    0.0000    0.0000    0.0000 O   0  0
  1  2  1  0
  2  3  1  0
  3  4  1  0
  4  5  1  0
  5  6  1  0
  6  7  1  0
  6  8  1  0
M  END
> <Name>
n-butyl nitrate	000928-45-0	928-45-0	390

> <CAS>
000928-45-0

> <HOMO>
-11.83

> <D Path Sum F rel>
0

> <G Cl Br I>
0

> <SeaC2C2aa>
0

> <logOH_exp>
11.85

> <logOH pred>
11.98

> <HAT>
0.02

> <HAT ref>
0.07

> <Mol Id>
390

> <SMILES>
CCCCON(O)O

$$$$
"bicyclo(2,2,2)-2-octene"	000931-64-6	931-64-6	392
  SciTegic06061110132D

 10 11  0  0  0  0            999 V2000
    0.0000    0.0000    0.0000 C   0  0
    0.0000    0.0000    0.0000 C   0  0
    0.0000    0.0000    0.0000 C   0  0
    0.0000    0.0000    0.0000 H   0  0
    0.0000    0.0000    0.0000 C   0  0
    0.0000    0.0000    0.0000 C   0  0
    0.0000    0.0000    0.0000 C   0  0
    0.0000    0.0000    0.0000 H   0  0
    0.0000    0.0000    0.0000 C   0  0
    0.0000    0.0000    0.0000 C   0  0
  1  7  1  0
  1  2  1  0
  2  3  1  0
  3  4  1  0
  3 10  1  0
  3  5  1  0
  5  6  1  0
  6  7  1  0
  7  8  1  0
  7  9  1  0
  9 10  2  3
M  END
> <Name>
"bicyclo(2,2,2)-2-octene"	000931-64-6	931-64-6	392

> <CAS>
000931-64-6

> <HOMO>
-9.72

> <D Path Sum F rel>
0

> <G Cl Br I>
0

> <SeaC2C2aa>
0

> <logOH_exp>
10.39

> <logOH pred>
10.53

> <HAT>
0.008

> <HAT ref>
0.07

> <Mol Id>
392

> <SMILES>
C1C[C@H]2CC[C@@H]1C=C2

$$$$
"2,3,5-trimethylhexane"	001069-53-0	1069-53-0	394
  SciTegic06061110132D

 10  9  0  0  0  0            999 V2000
    0.0000    0.0000    0.0000 C   0  0
    0.0000    0.0000    0.0000 C   0  0
    0.0000    0.0000    0.0000 C   0  0
    0.0000    0.0000    0.0000 C   0  0
    0.0000    0.0000    0.0000 C   0  0
    0.0000    0.0000    0.0000 H   0  0
    0.0000    0.0000    0.0000 C   0  0
    0.0000    0.0000    0.0000 C   0  0
    0.0000    0.0000    0.0000 C   0  0
    0.0000    0.0000    0.0000 C   0  0
  1  2  1  0
  2  3  1  0
  2  4  1  0
  4  5  1  0
  5  6  1  0
  5  7  1  0
  5  8  1  0
  8  9  1  0
  8 10  1  0
M  END
> <Name>
"2,3,5-trimethylhexane"	001069-53-0	1069-53-0	394

> <CAS>
001069-53-0

> <HOMO>
-10.88

> <D Path Sum F rel>
0

> <G Cl Br I>
0

> <SeaC2C2aa>
0

> <logOH_exp>
11.1

> <logOH pred>
11.33

> <HAT>
0.008

> <HAT ref>
0.07

> <Mol Id>
394

> <SMILES>
CC(C)C[C@H](C)C(C)C

$$$$
"cis-1,3-pentadiene"	001574-41-0	1574-41-0	398
  SciTegic06061110132D

  5  4  0  0  0  0            999 V2000
    0.0000    0.0000    0.0000 C   0  0
    0.0000    0.0000    0.0000 C   0  0
    0.0000    0.0000    0.0000 C   0  0
    0.0000    0.0000    0.0000 C   0  0
    0.0000    0.0000    0.0000 C   0  0
  1  2  1  0
  2  3  2  3
  3  4  1  0
  4  5  2  0
M  END
> <Name>
"cis-1,3-pentadiene"	001574-41-0	1574-41-0	398

> <CAS>
001574-41-0

> <HOMO>
-9.06

> <D Path Sum F rel>
0

> <G Cl Br I>
0

> <SeaC2C2aa>
0

> <logOH_exp>
10

> <logOH pred>
10.07

> <HAT>
0.015

> <HAT ref>
0.07

> <Mol Id>
398

> <SMILES>
C\C=C/C=C

$$$$
tert-butyl methyl ether	001634-04-4	1634-04-4	399
  SciTegic06061110132D

  6  5  0  0  0  0            999 V2000
    0.0000    0.0000    0.0000 C   0  0
    0.0000    0.0000    0.0000 O   0  0
    0.0000    0.0000    0.0000 C   0  0
    0.0000    0.0000    0.0000 C   0  0
    0.0000    0.0000    0.0000 C   0  0
    0.0000    0.0000    0.0000 C   0  0
  1  2  1  0
  2  3  1  0
  3  4  1  0
  3  5  1  0
  3  6  1  0
M  END
> <Name>
tert-butyl methyl ether	001634-04-4	1634-04-4	399

> <CAS>
001634-04-4

> <HOMO>
-10.43

> <D Path Sum F rel>
0

> <G Cl Br I>
0

> <SeaC2C2aa>
0

> <logOH_exp>
11.55

> <logOH pred>
11.02

> <HAT>
0.006

> <HAT ref>
0.07

> <Mol Id>
399

> <SMILES>
COC(C)(C)C

$$$$
"1,2-dichloro-1,1-difluoroethane"	001649-08-7	1649-08-7	400
  SciTegic06061110132D

  6  5  0  0  0  0            999 V2000
    0.0000    0.0000    0.0000 F   0  0
    0.0000    0.0000    0.0000 C   0  0
    0.0000    0.0000    0.0000 F   0  0
    0.0000    0.0000    0.0000 Cl  0  0
    0.0000    0.0000    0.0000 C   0  0
    0.0000    0.0000    0.0000 Cl  0  0
  1  2  1  0
  2  3  1  0
  2  4  1  0
  2  5  1  0
  5  6  1  0
M  END
> <Name>
"1,2-dichloro-1,1-difluoroethane"	001649-08-7	1649-08-7	400

> <CAS>
001649-08-7

> <HOMO>
-11.96

> <D Path Sum F rel>
0.7142857

> <G Cl Br I>
2

> <SeaC2C2aa>
0

> <logOH_exp>
13.72

> <logOH pred>
13.96

> <HAT>
0.068

> <HAT ref>
0.07

> <Mol Id>
400

> <SMILES>
FC(F)(Cl)CCl

$$$$
2-methyl-1-butanethiol	001878-18-8	1878-18-8	404
  SciTegic06061110132D

  7  6  0  0  0  0            999 V2000
    0.0000    0.0000    0.0000 C   0  0
    0.0000    0.0000    0.0000 C   0  0
    0.0000    0.0000    0.0000 C   0  0
    0.0000    0.0000    0.0000 H   0  0
    0.0000    0.0000    0.0000 C   0  0
    0.0000    0.0000    0.0000 C   0  0
    0.0000    0.0000    0.0000 S   0  0
  1  2  1  0
  2  3  1  0
  3  4  1  0
  3  5  1  0
  3  6  1  0
  6  7  1  0
M  END
> <Name>
2-methyl-1-butanethiol	001878-18-8	1878-18-8	404

> <CAS>
001878-18-8

> <HOMO>
-8.86

> <D Path Sum F rel>
0

> <G Cl Br I>
0

> <SeaC2C2aa>
0

> <logOH_exp>
10.27

> <logOH pred>
9.94

> <HAT>
0.018

> <HAT ref>
0.07

> <Mol Id>
404

> <SMILES>
CC[C@@H](C)CS

$$$$
"trans-1,3-Pentadiene"	002004-70-8	2004-70-8	405
  SciTegic06061110132D

  5  4  0  0  0  0            999 V2000
    0.0000    0.0000    0.0000 C   0  0
    0.0000    0.0000    0.0000 C   0  0
    0.0000    0.0000    0.0000 C   0  0
    0.0000    0.0000    0.0000 C   0  0
    0.0000    0.0000    0.0000 C   0  0
  1  2  1  0
  2  3  2  3
  3  4  1  0
  4  5  2  0
M  END
> <Name>
"trans-1,3-Pentadiene"	002004-70-8	2004-70-8	405

> <CAS>
002004-70-8

> <HOMO>
-9.03

> <D Path Sum F rel>
0

> <G Cl Br I>
0

> <SeaC2C2aa>
0

> <logOH_exp>
10

> <logOH pred>
10.05

> <HAT>
0.016

> <HAT ref>
0.07

> <Mol Id>
405

> <SMILES>
C\C=C\C=C

$$$$
p-chlorobiphenyl	002051-62-9	2051-62-9	408
  SciTegic06061110132D

 13 14  0  0  0  0            999 V2000
    0.0000    0.0000    0.0000 Cl  0  0
    0.0000    0.0000    0.0000 C   0  0
    0.0000    0.0000    0.0000 C   0  0
    0.0000    0.0000    0.0000 C   0  0
    0.0000    0.0000    0.0000 C   0  0
    0.0000    0.0000    0.0000 C   0  0
    0.0000    0.0000    0.0000 C   0  0
    0.0000    0.0000    0.0000 C   0  0
    0.0000    0.0000    0.0000 C   0  0
    0.0000    0.0000    0.0000 C   0  0
    0.0000    0.0000    0.0000 C   0  0
    0.0000    0.0000    0.0000 C   0  0
    0.0000    0.0000    0.0000 C   0  0
  1  2  1  0
  2  7  1  0
  2  3  2  3
  3  4  1  0
  4  5  2  3
  5  6  1  0
  5  8  1  0
  6  7  2  3
  8 13  1  0
  8  9  2  3
  9 10  1  0
 10 11  2  3
 11 12  1  0
 12 13  2  3
M  END
> <Name>
p-chlorobiphenyl	002051-62-9	2051-62-9	408

> <CAS>
002051-62-9

> <HOMO>
-9.11

> <D Path Sum F rel>
0

> <G Cl Br I>
1

> <SeaC2C2aa>
17.56316

> <logOH_exp>
11.41

> <logOH pred>
11.59

> <HAT>
0.056

> <HAT ref>
0.07

> <Mol Id>
408

> <SMILES>
ClC1=CC=C(C=C1)C1=CC=CC=C1

$$$$
4-methyloctane	002216-34-4	2216-34-4	410
  SciTegic06061110132D

 10  9  0  0  0  0            999 V2000
    0.0000    0.0000    0.0000 C   0  0
    0.0000    0.0000    0.0000 C   0  0
    0.0000    0.0000    0.0000 C   0  0
    0.0000    0.0000    0.0000 C   0  0
    0.0000    0.0000    0.0000 C   0  0
    0.0000    0.0000    0.0000 H   0  0
    0.0000    0.0000    0.0000 C   0  0
    0.0000    0.0000    0.0000 C   0  0
    0.0000    0.0000    0.0000 C   0  0
    0.0000    0.0000    0.0000 C   0  0
  1  2  1  0
  2  3  1  0
  3  4  1  0
  4  5  1  0
  5  6  1  0
  5  7  1  0
  5  8  1  0
  8  9  1  0
  9 10  1  0
M  END
> <Name>
4-methyloctane	002216-34-4	2216-34-4	410

> <CAS>
002216-34-4

> <HOMO>
-10.97

> <D Path Sum F rel>
0

> <G Cl Br I>
0

> <SeaC2C2aa>
0

> <logOH_exp>
11.01

> <logOH pred>
11.39

> <HAT>
0.009

> <HAT ref>
0.07

> <Mol Id>
410

> <SMILES>
CCCC[C@H](C)CCC

$$$$
"O,O,S-trimethyl phosphorodithioate"	002953-29-9	2953-29-9	415
  SciTegic06061110132D

  8  7  0  0  0  0            999 V2000
    0.0000    0.0000    0.0000 C   0  0
    0.0000    0.0000    0.0000 O   0  0
    0.0000    0.0000    0.0000 P   0  0
    0.0000    0.0000    0.0000 S   0  0
    0.0000    0.0000    0.0000 O   0  0
    0.0000    0.0000    0.0000 C   0  0
    0.0000    0.0000    0.0000 S   0  0
    0.0000    0.0000    0.0000 C   0  0
  1  2  1  0
  2  3  1  0
  3  4  2  0
  3  5  1  0
  3  7  1  0
  5  6  1  0
  7  8  1  0
M  END
> <Name>
"O,O,S-trimethyl phosphorodithioate"	002953-29-9	2953-29-9	415

> <CAS>
002953-29-9

> <HOMO>
-9.98

> <D Path Sum F rel>
0

> <G Cl Br I>
0

> <SeaC2C2aa>
0

> <logOH_exp>
10.25

> <logOH pred>
10.71

> <HAT>
0.007

> <HAT ref>
0.07

> <Mol Id>
415

> <SMILES>
COP(=S)(OC)SC

$$$$
methyl hydroperoxide	003031-73-0	3031-73-0	416
  SciTegic06061110132D

  3  2  0  0  0  0            999 V2000
    0.0000    0.0000    0.0000 C   0  0
    0.0000    0.0000    0.0000 O   0  0
    0.0000    0.0000    0.0000 O   0  0
  1  2  1  0
  2  3  1  0
M  END
> <Name>
methyl hydroperoxide	003031-73-0	3031-73-0	416

> <CAS>
003031-73-0

> <HOMO>
-10.54

> <D Path Sum F rel>
0

> <G Cl Br I>
0

> <SeaC2C2aa>
0

> <logOH_exp>
11.42

> <logOH pred>
11.09

> <HAT>
0.006

> <HAT ref>
0.07

> <Mol Id>
416

> <SMILES>
COO

$$$$
"1,1,3-trimethylcyclohexane"	003073-66-3	3073-66-3	417
  SciTegic06061110132D

 10 10  0  0  0  0            999 V2000
    0.0000    0.0000    0.0000 C   0  0
    0.0000    0.0000    0.0000 C   0  0
    0.0000    0.0000    0.0000 H   0  0
    0.0000    0.0000    0.0000 C   0  0
    0.0000    0.0000    0.0000 C   0  0
    0.0000    0.0000    0.0000 C   0  0
    0.0000    0.0000    0.0000 C   0  0
    0.0000    0.0000    0.0000 C   0  0
    0.0000    0.0000    0.0000 C   0  0
    0.0000    0.0000    0.0000 C   0  0
  1  2  1  0
  2  3  1  0
  2 10  1  0
  2  4  1  0
  4  5  1  0
  5  6  1  0
  6  7  1  0
  7  8  1  0
  7  9  1  0
  7 10  1  0
M  END
> <Name>
"1,1,3-trimethylcyclohexane"	003073-66-3	3073-66-3	417

> <CAS>
003073-66-3

> <HOMO>
-10.74

> <D Path Sum F rel>
0

> <G Cl Br I>
0

> <SeaC2C2aa>
0

> <logOH_exp>
11.06

> <logOH pred>
11.23

> <HAT>
0.007

> <HAT ref>
0.07

> <Mol Id>
417

> <SMILES>
C[C@H]1CCCC(C)(C)C1

$$$$
"trans-bicyclo(4,3,0)-nonane"	003296-50-2	3296-50-2	419
  SciTegic06061110132D

 11 12  0  0  0  0            999 V2000
    0.0000    0.0000    0.0000 C   0  0
    0.0000    0.0000    0.0000 C   0  0
    0.0000    0.0000    0.0000 C   0  0
    0.0000    0.0000    0.0000 H   0  0
    0.0000    0.0000    0.0000 C   0  0
    0.0000    0.0000    0.0000 C   0  0
    0.0000    0.0000    0.0000 C   0  0
    0.0000    0.0000    0.0000 C   0  0
    0.0000    0.0000    0.0000 C   0  0
    0.0000    0.0000    0.0000 H   0  0
    0.0000    0.0000    0.0000 C   0  0
  1 11  1  0
  1  2  1  0
  2  3  1  0
  3  4  1  0
  3  9  1  0
  3  5  1  0
  5  6  1  0
  6  7  1  0
  7  8  1  0
  8  9  1  0
  9 10  1  0
  9 11  1  0
M  END
> <Name>
"trans-bicyclo(4,3,0)-nonane"	003296-50-2	3296-50-2	419

> <CAS>
003296-50-2

> <HOMO>
-10.5

> <D Path Sum F rel>
0

> <G Cl Br I>
0

> <SeaC2C2aa>
0

> <logOH_exp>
10.75

> <logOH pred>
11.06

> <HAT>
0.006

> <HAT ref>
0.07

> <Mol Id>
419

> <SMILES>
C1C[C@@H]2CCCC[C@H]2C1

$$$$
isopropil-ciclopropane	003638-35-5	3638-35-5	421
  SciTegic06061110132D

  6  6  0  0  0  0            999 V2000
    0.0000    0.0000    0.0000 C   0  0
    0.0000    0.0000    0.0000 C   0  0
    0.0000    0.0000    0.0000 C   0  0
    0.0000    0.0000    0.0000 C   0  0
    0.0000    0.0000    0.0000 C   0  0
    0.0000    0.0000    0.0000 C   0  0
  1  2  1  0
  2  3  1  0
  2  4  1  0
  4  6  1  0
  4  5  1  0
  5  6  1  0
M  END
> <Name>
isopropil-ciclopropane	003638-35-5	3638-35-5	421

> <CAS>
003638-35-5

> <HOMO>
-10.67

> <D Path Sum F rel>
0

> <G Cl Br I>
0

> <SeaC2C2aa>
0

> <logOH_exp>
11.55

> <logOH pred>
11.18

> <HAT>
0.007

> <HAT ref>
0.07

> <Mol Id>
421

> <SMILES>
CC(C)C1CC1

$$$$
diethyl-hydroxylamine	003710-84-7	3710-84-7	422
  SciTegic06061110132D

  6  5  0  0  0  0            999 V2000
    0.0000    0.0000    0.0000 C   0  0
    0.0000    0.0000    0.0000 C   0  0
    0.0000    0.0000    0.0000 N   0  0
    0.0000    0.0000    0.0000 O   0  0
    0.0000    0.0000    0.0000 C   0  0
    0.0000    0.0000    0.0000 C   0  0
  1  2  1  0
  2  3  1  0
  3  4  1  0
  3  5  1  0
  5  6  1  0
M  END
> <Name>
diethyl-hydroxylamine	003710-84-7	3710-84-7	422

> <CAS>
003710-84-7

> <HOMO>
-9.71

> <D Path Sum F rel>
0

> <G Cl Br I>
0

> <SeaC2C2aa>
0

> <logOH_exp>
10

> <logOH pred>
10.52

> <HAT>
0.008

> <HAT ref>
0.07

> <Mol Id>
422

> <SMILES>
CCN(O)CC

$$$$
"2-methyl-1,5-hexadiene"	004049-81-4	4049-81-4	424
  SciTegic06061110132D

  7  6  0  0  0  0            999 V2000
    0.0000    0.0000    0.0000 C   0  0
    0.0000    0.0000    0.0000 C   0  0
    0.0000    0.0000    0.0000 C   0  0
    0.0000    0.0000    0.0000 C   0  0
    0.0000    0.0000    0.0000 C   0  0
    0.0000    0.0000    0.0000 C   0  0
    0.0000    0.0000    0.0000 C   0  0
  1  2  1  0
  2  3  2  0
  2  4  1  0
  4  5  1  0
  5  6  1  0
  6  7  2  0
M  END
> <Name>
"2-methyl-1,5-hexadiene"	004049-81-4	4049-81-4	424

> <CAS>
004049-81-4

> <HOMO>
-9.7

> <D Path Sum F rel>
0

> <G Cl Br I>
0

> <SeaC2C2aa>
0

> <logOH_exp>
10.02

> <logOH pred>
10.51

> <HAT>
0.008

> <HAT ref>
0.07

> <Mol Id>
424

> <SMILES>
CC(=C)CCC=C

$$$$
"1,3-cycloheptadiene"	004054-38-0	4054-38-0	425
  SciTegic06061110132D

  7  7  0  0  0  0            999 V2000
    0.0000    0.0000    0.0000 C   0  0
    0.0000    0.0000    0.0000 C   0  0
    0.0000    0.0000    0.0000 C   0  0
    0.0000    0.0000    0.0000 C   0  0
    0.0000    0.0000    0.0000 C   0  0
    0.0000    0.0000    0.0000 C   0  0
    0.0000    0.0000    0.0000 C   0  0
  1  7  1  0
  1  2  1  0
  2  3  1  0
  3  4  2  3
  4  5  1  0
  5  6  2  3
  6  7  1  0
M  END
> <Name>
"1,3-cycloheptadiene"	004054-38-0	4054-38-0	425

> <CAS>
004054-38-0

> <HOMO>
-9.09

> <D Path Sum F rel>
0

> <G Cl Br I>
0

> <SeaC2C2aa>
0

> <logOH_exp>
9.86

> <logOH pred>
10.09

> <HAT>
0.015

> <HAT ref>
0.07

> <Mol Id>
425

> <SMILES>
C1CC=CC=CC1

$$$$
"cis-bicyclo(4,3,0)-nonane"	004551-51-3	4551-51-3	428
  SciTegic06061110132D

 11 12  0  0  0  0            999 V2000
    0.0000    0.0000    0.0000 C   0  0
    0.0000    0.0000    0.0000 C   0  0
    0.0000    0.0000    0.0000 C   0  0
    0.0000    0.0000    0.0000 H   0  0
    0.0000    0.0000    0.0000 C   0  0
    0.0000    0.0000    0.0000 C   0  0
    0.0000    0.0000    0.0000 C   0  0
    0.0000    0.0000    0.0000 C   0  0
    0.0000    0.0000    0.0000 C   0  0
    0.0000    0.0000    0.0000 H   0  0
    0.0000    0.0000    0.0000 C   0  0
  1 11  1  0
  1  2  1  0
  2  3  1  0
  3  4  1  0
  3  9  1  0
  3  5  1  0
  5  6  1  0
  6  7  1  0
  7  8  1  0
  8  9  1  0
  9 10  1  0
  9 11  1  0
M  END
> <Name>
"cis-bicyclo(4,3,0)-nonane"	004551-51-3	4551-51-3	428

> <CAS>
004551-51-3

> <HOMO>
-10.54

> <D Path Sum F rel>
0

> <G Cl Br I>
0

> <SeaC2C2aa>
0

> <logOH_exp>
10.76

> <logOH pred>
11.09

> <HAT>
0.006

> <HAT ref>
0.07

> <Mol Id>
428

> <SMILES>
C1C[C@H]2CCCC[C@H]2C1

$$$$
"trans-trans-2,4-hexadiene"	005194-51-4	5194-51-4	429
  SciTegic06061110132D

  6  5  0  0  0  0            999 V2000
    0.0000    0.0000    0.0000 C   0  0
    0.0000    0.0000    0.0000 C   0  0
    0.0000    0.0000    0.0000 C   0  0
    0.0000    0.0000    0.0000 C   0  0
    0.0000    0.0000    0.0000 C   0  0
    0.0000    0.0000    0.0000 C   0  0
  1  2  1  0
  2  3  2  3
  3  4  1  0
  4  5  2  3
  5  6  1  0
M  END
> <Name>
"trans-trans-2,4-hexadiene"	005194-51-4	5194-51-4	429

> <CAS>
005194-51-4

> <HOMO>
-8.78

> <D Path Sum F rel>
0

> <G Cl Br I>
0

> <SeaC2C2aa>
0

> <logOH_exp>
9.87

> <logOH pred>
9.88

> <HAT>
0.02

> <HAT ref>
0.07

> <Mol Id>
429

> <SMILES>
CC=CC=CC

$$$$
methoxyacetone	005878-19-3	5878-19-3	430
  SciTegic06061110132D

  6  5  0  0  0  0            999 V2000
    0.0000    0.0000    0.0000 C   0  0
    0.0000    0.0000    0.0000 O   0  0
    0.0000    0.0000    0.0000 C   0  0
    0.0000    0.0000    0.0000 C   0  0
    0.0000    0.0000    0.0000 C   0  0
    0.0000    0.0000    0.0000 O   0  0
  1  2  1  0
  2  3  1  0
  3  4  1  0
  4  5  1  0
  4  6  2  0
M  END
> <Name>
methoxyacetone	005878-19-3	5878-19-3	430

> <CAS>
005878-19-3

> <HOMO>
-10.66

> <D Path Sum F rel>
0

> <G Cl Br I>
0

> <SeaC2C2aa>
0

> <logOH_exp>
11.17

> <logOH pred>
11.17

> <HAT>
0.007

> <HAT ref>
0.07

> <Mol Id>
430

> <SMILES>
COCC(C)=O

$$$$
"tricyclo(5,2,1,0)decane"	006004-38-2	6004-38-2	431
  SciTegic06061110132D

 14 16  0  0  0  0            999 V2000
    0.0000    0.0000    0.0000 C   0  0
    0.0000    0.0000    0.0000 C   0  0
    0.0000    0.0000    0.0000 C   0  0
    0.0000    0.0000    0.0000 H   0  0
    0.0000    0.0000    0.0000 C   0  0
    0.0000    0.0000    0.0000 H   0  0
    0.0000    0.0000    0.0000 C   0  0
    0.0000    0.0000    0.0000 C   0  0
    0.0000    0.0000    0.0000 C   0  0
    0.0000    0.0000    0.0000 H   0  0
    0.0000    0.0000    0.0000 C   0  0
    0.0000    0.0000    0.0000 C   0  0
    0.0000    0.0000    0.0000 H   0  0
    0.0000    0.0000    0.0000 C   0  0
  1 14  1  0
  1  2  1  0
  2  3  1  0
  3  4  1  0
  3 12  1  0
  3  5  1  0
  5  6  1  0
  5 11  1  0
  5  7  1  0
  7  8  1  0
  8  9  1  0
  9 10  1  0
  9 11  1  0
  9 12  1  0
 12 13  1  0
 12 14  1  0
M  END
> <Name>
"tricyclo(5,2,1,0)decane"	006004-38-2	6004-38-2	431

> <CAS>
006004-38-2

> <HOMO>
-10.79

> <D Path Sum F rel>
0

> <G Cl Br I>
0

> <SeaC2C2aa>
0

> <logOH_exp>
10.95

> <logOH pred>
11.26

> <HAT>
0.007

> <HAT ref>
0.07

> <Mol Id>
431

> <SMILES>
C1C[C@H]2[C@@H]3CC[C@@H](C3)[C@H]2C1

$$$$
"1,2-dimethoxypropane"	007778-85-0	7778-85-0	435
  SciTegic06061110132D

  8  7  0  0  0  0            999 V2000
    0.0000    0.0000    0.0000 C   0  0
    0.0000    0.0000    0.0000 O   0  0
    0.0000    0.0000    0.0000 C   0  0
    0.0000    0.0000    0.0000 C   0  0
    0.0000    0.0000    0.0000 H   0  0
    0.0000    0.0000    0.0000 C   0  0
    0.0000    0.0000    0.0000 O   0  0
    0.0000    0.0000    0.0000 C   0  0
  1  2  1  0
  2  3  1  0
  3  4  1  0
  4  5  1  0
  4  6  1  0
  4  7  1  0
  7  8  1  0
M  END
> <Name>
"1,2-dimethoxypropane"	007778-85-0	7778-85-0	435

> <CAS>
007778-85-0

> <HOMO>
-10.47

> <D Path Sum F rel>
0

> <G Cl Br I>
0

> <SeaC2C2aa>
0

> <logOH_exp>
10.85

> <logOH pred>
11.04

> <HAT>
0.006

> <HAT ref>
0.07

> <Mol Id>
435

> <SMILES>
COC[C@H](C)OC

$$$$
"2,3-dimethyl-2-pentene"	010574-37-5	10574-37-5	438
  SciTegic06061110132D

  7  6  0  0  0  0            999 V2000
    0.0000    0.0000    0.0000 C   0  0
    0.0000    0.0000    0.0000 C   0  0
    0.0000    0.0000    0.0000 C   0  0
    0.0000    0.0000    0.0000 C   0  0
    0.0000    0.0000    0.0000 C   0  0
    0.0000    0.0000    0.0000 C   0  0
    0.0000    0.0000    0.0000 C   0  0
  1  2  1  0
  2  3  1  0
  3  4  1  0
  3  5  2  3
  5  6  1  0
  5  7  1  0
M  END
> <Name>
"2,3-dimethyl-2-pentene"	010574-37-5	10574-37-5	438

> <CAS>
010574-37-5

> <HOMO>
-8.91

> <D Path Sum F rel>
0

> <G Cl Br I>
0

> <SeaC2C2aa>
0

> <logOH_exp>
10.01

> <logOH pred>
9.97

> <HAT>
0.018

> <HAT ref>
0.07

> <Mol Id>
438

> <SMILES>
CC\C(C)=C(\C)C

$$$$
ocimene	013877-91-3	13877-91-3	440
  SciTegic06061110132D

 10  9  0  0  0  0            999 V2000
    0.0000    0.0000    0.0000 C   0  0
    0.0000    0.0000    0.0000 C   0  0
    0.0000    0.0000    0.0000 C   0  0
    0.0000    0.0000    0.0000 C   0  0
    0.0000    0.0000    0.0000 C   0  0
    0.0000    0.0000    0.0000 C   0  0
    0.0000    0.0000    0.0000 C   0  0
    0.0000    0.0000    0.0000 C   0  0
    0.0000    0.0000    0.0000 C   0  0
    0.0000    0.0000    0.0000 C   0  0
  1  2  1  0
  2  3  2  0
  2  4  1  0
  4  5  2  3
  5  6  1  0
  6  7  1  0
  7  8  2  3
  8  9  1  0
  8 10  1  0
M  END
> <Name>
ocimene	013877-91-3	13877-91-3	440

> <CAS>
013877-91-3

> <HOMO>
-8.93

> <D Path Sum F rel>
0

> <G Cl Br I>
0

> <SeaC2C2aa>
0

> <logOH_exp>
9.6

> <logOH pred>
9.98

> <HAT>
0.017

> <HAT ref>
0.07

> <Mol Id>
440

> <SMILES>
CC(=C)C=CC\C=C(\C)C

$$$$
"1,1,3-trimethoxypropane"	014315-97-0	14315-97-0	441
  SciTegic06061110132D

  9  8  0  0  0  0            999 V2000
    0.0000    0.0000    0.0000 C   0  0
    0.0000    0.0000    0.0000 O   0  0
    0.0000    0.0000    0.0000 C   0  0
    0.0000    0.0000    0.0000 C   0  0
    0.0000    0.0000    0.0000 C   0  0
    0.0000    0.0000    0.0000 O   0  0
    0.0000    0.0000    0.0000 C   0  0
    0.0000    0.0000    0.0000 O   0  0
    0.0000    0.0000    0.0000 C   0  0
  1  2  1  0
  2  3  1  0
  3  4  1  0
  4  5  1  0
  5  6  1  0
  5  8  1  0
  6  7  1  0
  8  9  1  0
M  END
> <Name>
"1,1,3-trimethoxypropane"	014315-97-0	14315-97-0	441

> <CAS>
014315-97-0

> <HOMO>
-10.26

> <D Path Sum F rel>
0

> <G Cl Br I>
0

> <SeaC2C2aa>
0

> <logOH_exp>
10.72

> <logOH pred>
10.9

> <HAT>
0.006

> <HAT ref>
0.07

> <Mol Id>
441

> <SMILES>
COCCC(OC)OC

$$$$
trans-4-octene	014850-23-8	14850-23-8	443
  SciTegic06061110132D

  8  7  0  0  0  0            999 V2000
    0.0000    0.0000    0.0000 C   0  0
    0.0000    0.0000    0.0000 C   0  0
    0.0000    0.0000    0.0000 C   0  0
    0.0000    0.0000    0.0000 C   0  0
    0.0000    0.0000    0.0000 C   0  0
    0.0000    0.0000    0.0000 C   0  0
    0.0000    0.0000    0.0000 C   0  0
    0.0000    0.0000    0.0000 C   0  0
  1  2  1  0
  2  3  1  0
  3  4  1  0
  4  5  2  3
  5  6  1  0
  6  7  1  0
  7  8  1  0
M  END
> <Name>
trans-4-octene	014850-23-8	14850-23-8	443

> <CAS>
014850-23-8

> <HOMO>
-9.47

> <D Path Sum F rel>
0

> <G Cl Br I>
0

> <SeaC2C2aa>
0

> <logOH_exp>
10.16

> <logOH pred>
10.36

> <HAT>
0.01

> <HAT ref>
0.07

> <Mol Id>
443

> <SMILES>
CCCC=CCCC

$$$$
"cis-3-hexene-2,5-dione"	017559-81-8	17559-81-8	444
  SciTegic06061110132D

  8  7  0  0  0  0            999 V2000
    0.0000    0.0000    0.0000 C   0  0
    0.0000    0.0000    0.0000 C   0  0
    0.0000    0.0000    0.0000 O   0  0
    0.0000    0.0000    0.0000 C   0  0
    0.0000    0.0000    0.0000 C   0  0
    0.0000    0.0000    0.0000 C   0  0
    0.0000    0.0000    0.0000 C   0  0
    0.0000    0.0000    0.0000 O   0  0
  1  2  1  0
  2  3  2  0
  2  4  1  0
  4  5  2  3
  5  6  1  0
  6  7  1  0
  6  8  2  0
M  END
> <Name>
"cis-3-hexene-2,5-dione"	017559-81-8	17559-81-8	444

> <CAS>
017559-81-8

> <HOMO>
-10.38

> <D Path Sum F rel>
0

> <G Cl Br I>
0

> <SeaC2C2aa>
0

> <logOH_exp>
10.2

> <logOH pred>
10.98

> <HAT>
0.006

> <HAT ref>
0.07

> <Mol Id>
444

> <SMILES>
CC(=O)\C=C/C(C)=O

$$$$
"O,S,S-trimethyl phosphorodithioate"	022608-53-3	22608-53-3	448
  SciTegic06061110132D

  8  7  0  0  0  0            999 V2000
    0.0000    0.0000    0.0000 C   0  0
    0.0000    0.0000    0.0000 O   0  0
    0.0000    0.0000    0.0000 P   0  0
    0.0000    0.0000    0.0000 O   0  0
    0.0000    0.0000    0.0000 S   0  0
    0.0000    0.0000    0.0000 C   0  0
    0.0000    0.0000    0.0000 S   0  0
    0.0000    0.0000    0.0000 C   0  0
  1  2  1  0
  2  3  1  0
  3  4  2  0
  3  5  1  0
  3  7  1  0
  5  6  1  0
  7  8  1  0
M  END
> <Name>
"O,S,S-trimethyl phosphorodithioate"	022608-53-3	22608-53-3	448

> <CAS>
022608-53-3

> <HOMO>
-9.84

> <D Path Sum F rel>
0

> <G Cl Br I>
0

> <SeaC2C2aa>
0

> <logOH_exp>
11.02

> <logOH pred>
10.61

> <HAT>
0.007

> <HAT ref>
0.07

> <Mol Id>
448

> <SMILES>
COP(=O)(SC)SC

$$$$
"1,1-dimethoxyethane"	025154-53-4	25154-53-4	449
  SciTegic06061110132D

  6  5  0  0  0  0            999 V2000
    0.0000    0.0000    0.0000 C   0  0
    0.0000    0.0000    0.0000 O   0  0
    0.0000    0.0000    0.0000 C   0  0
    0.0000    0.0000    0.0000 C   0  0
    0.0000    0.0000    0.0000 O   0  0
    0.0000    0.0000    0.0000 C   0  0
  1  2  1  0
  2  3  1  0
  3  4  1  0
  3  5  1  0
  5  6  1  0
M  END
> <Name>
"1,1-dimethoxyethane"	025154-53-4	25154-53-4	449

> <CAS>
025154-53-4

> <HOMO>
-10.74

> <D Path Sum F rel>
0

> <G Cl Br I>
0

> <SeaC2C2aa>
0

> <logOH_exp>
11.05

> <logOH pred>
11.23

> <HAT>
0.007

> <HAT ref>
0.07

> <Mol Id>
449

> <SMILES>
COC(C)OC

$$$$
dimethylstyrene	027576-03-0	27576-03-0	450
  SciTegic06061110132D

 10 10  0  0  0  0            999 V2000
    0.0000    0.0000    0.0000 C   0  0
    0.0000    0.0000    0.0000 C   0  0
    0.0000    0.0000    0.0000 C   0  0
    0.0000    0.0000    0.0000 C   0  0
    0.0000    0.0000    0.0000 C   0  0
    0.0000    0.0000    0.0000 C   0  0
    0.0000    0.0000    0.0000 C   0  0
    0.0000    0.0000    0.0000 C   0  0
    0.0000    0.0000    0.0000 C   0  0
    0.0000    0.0000    0.0000 C   0  0
  1  2  1  0
  2  3  1  0
  2  4  1  0
  4  5  1  0
  5 10  1  0
  5  6  2  3
  6  7  1  0
  7  8  2  3
  8  9  1  0
  9 10  2  3
M  END
> <Name>
dimethylstyrene	027576-03-0	27576-03-0	450

> <CAS>
027576-03-0

> <HOMO>
-8.62

> <D Path Sum F rel>
0

> <G Cl Br I>
0

> <SeaC2C2aa>
12.85239

> <logOH_exp>
10.48

> <logOH pred>
10.5

> <HAT>
0.025

> <HAT ref>
0.07

> <Mol Id>
450

> <SMILES>
CC(C)CC1=CC=CC=C1

$$$$
3-hexyl nitrate	082944-60-3	82944-60-3	453
  SciTegic06061110132D

 11 10  0  0  0  0            999 V2000
    0.0000    0.0000    0.0000 C   0  0
    0.0000    0.0000    0.0000 C   0  0
    0.0000    0.0000    0.0000 C   0  0
    0.0000    0.0000    0.0000 C   0  0
    0.0000    0.0000    0.0000 H   0  0
    0.0000    0.0000    0.0000 C   0  0
    0.0000    0.0000    0.0000 C   0  0
    0.0000    0.0000    0.0000 O   0  0
    0.0000    0.0000    0.0000 N   0  0
    0.0000    0.0000    0.0000 O   0  0
    0.0000    0.0000    0.0000 O   0  0
  1  2  1  0
  2  3  1  0
  3  4  1  0
  4  5  1  0
  4  6  1  0
  4  8  1  0
  6  7  1  0
  8  9  1  0
  9 10  1  0
  9 11  1  0
M  END
> <Name>
3-hexyl nitrate	082944-60-3	82944-60-3	453

> <CAS>
082944-60-3

> <HOMO>
-11.67

> <D Path Sum F rel>
0

> <G Cl Br I>
0

> <SeaC2C2aa>
0

> <logOH_exp>
11.57

> <logOH pred>
11.87

> <HAT>
0.017

> <HAT ref>
0.07

> <Mol Id>
453

> <SMILES>
CCC[C@@H](CC)ON(O)O

$$$$
3-heptyl nitrate	082944-61-4	82944-61-4	454
  SciTegic06061110132D

 12 11  0  0  0  0            999 V2000
    0.0000    0.0000    0.0000 C   0  0
    0.0000    0.0000    0.0000 C   0  0
    0.0000    0.0000    0.0000 C   0  0
    0.0000    0.0000    0.0000 C   0  0
    0.0000    0.0000    0.0000 C   0  0
    0.0000    0.0000    0.0000 H   0  0
    0.0000    0.0000    0.0000 C   0  0
    0.0000    0.0000    0.0000 C   0  0
    0.0000    0.0000    0.0000 O   0  0
    0.0000    0.0000    0.0000 N   0  0
    0.0000    0.0000    0.0000 O   0  0
    0.0000    0.0000    0.0000 O   0  0
  1  2  1  0
  2  3  1  0
  3  4  1  0
  4  5  1  0
  5  6  1  0
  5  7  1  0
  5  9  1  0
  7  8  1  0
  9 10  1  0
 10 11  1  0
 10 12  1  0
M  END
> <Name>
3-heptyl nitrate	082944-61-4	82944-61-4	454

> <CAS>
082944-61-4

> <HOMO>
-11.49

> <D Path Sum F rel>
0

> <G Cl Br I>
0

> <SeaC2C2aa>
0

> <logOH_exp>
11.43

> <logOH pred>
11.75

> <HAT>
0.014

> <HAT ref>
0.07

> <Mol Id>
454

> <SMILES>
CCCC[C@@H](CC)ON(O)O

$$$$
"3,7-dimethyl-1,6-octadiene"	010281-56-8	10281-56-8	456
  SciTegic06061110132D

 11 10  0  0  0  0            999 V2000
    0.0000    0.0000    0.0000 C   0  0
    0.0000    0.0000    0.0000 C   0  0
    0.0000    0.0000    0.0000 H   0  0
    0.0000    0.0000    0.0000 C   0  0
    0.0000    0.0000    0.0000 C   0  0
    0.0000    0.0000    0.0000 C   0  0
    0.0000    0.0000    0.0000 C   0  0
    0.0000    0.0000    0.0000 C   0  0
    0.0000    0.0000    0.0000 C   0  0
    0.0000    0.0000    0.0000 C   0  0
    0.0000    0.0000    0.0000 C   0  0
  1  2  1  0
  2  3  1  0
  2  4  1  0
  2 10  1  0
  4  5  1  0
  5  6  1  0
  6  7  2  3
  7  8  1  0
  7  9  1  0
 10 11  2  0
M  END
> <Name>
"3,7-dimethyl-1,6-octadiene"	010281-56-8	10281-56-8	456

> <CAS>
010281-56-8

> <HOMO>
-9.21

> <D Path Sum F rel>
0

> <G Cl Br I>
0

> <SeaC2C2aa>
0

> <logOH_exp>
9.74

> <logOH pred>
10.18

> <HAT>
0.013

> <HAT ref>
0.07

> <Mol Id>
456

> <SMILES>
C[C@H](CC\C=C(\C)C)C=C

$$$$
3-methyl-2-butyl nitrate	999999-9-2	999999-9-2	458
  SciTegic06061110132D

 10  9  0  0  0  0            999 V2000
    0.0000    0.0000    0.0000 C   0  0
    0.0000    0.0000    0.0000 C   0  0
    0.0000    0.0000    0.0000 C   0  0
    0.0000    0.0000    0.0000 C   0  0
    0.0000    0.0000    0.0000 H   0  0
    0.0000    0.0000    0.0000 C   0  0
    0.0000    0.0000    0.0000 O   0  0
    0.0000    0.0000    0.0000 N   0  0
    0.0000    0.0000    0.0000 O   0  0
    0.0000    0.0000    0.0000 O   0  0
  1  2  1  0
  2  3  1  0
  2  4  1  0
  4  5  1  0
  4  6  1  0
  4  7  1  0
  7  8  1  0
  8  9  1  0
  8 10  1  0
M  END
> <Name>
3-methyl-2-butyl nitrate	999999-9-2	999999-9-2	458

> <CAS>
999999-9-2

> <HOMO>
-11.85

> <D Path Sum F rel>
0

> <G Cl Br I>
0

> <SeaC2C2aa>
0

> <logOH_exp>
11.76

> <logOH pred>
11.99

> <HAT>
0.02

> <HAT ref>
0.07

> <Mol Id>
458

> <SMILES>
CC(C)[C@@H](C)ON(O)O

$$$$
2-methyl-2-pentyl nitrate	000002-52-6	000002-52-6	459
  SciTegic06061110132D

 10  9  0  0  0  0            999 V2000
    0.0000    0.0000    0.0000 C   0  0
    0.0000    0.0000    0.0000 C   0  0
    0.0000    0.0000    0.0000 C   0  0
    0.0000    0.0000    0.0000 C   0  0
    0.0000    0.0000    0.0000 C   0  0
    0.0000    0.0000    0.0000 C   0  0
    0.0000    0.0000    0.0000 O   0  0
    0.0000    0.0000    0.0000 N   0  0
    0.0000    0.0000    0.0000 O   0  0
    0.0000    0.0000    0.0000 O   0  0
  1  2  1  0
  2  3  1  0
  3  4  1  0
  4  5  1  0
  4  6  1  0
  4  7  1  0
  7  8  1  0
  8  9  1  0
  8 10  1  0
M  END
> <Name>
2-methyl-2-pentyl nitrate	000002-52-6	000002-52-6	459

> <CAS>
000002-52-6

> <HOMO>
-11.66

> <D Path Sum F rel>
0

> <G Cl Br I>
0

> <SeaC2C2aa>
0

> <logOH_exp>
11.77

> <logOH pred>
11.86

> <HAT>
0.017

> <HAT ref>
0.07

> <Mol Id>
459

> <SMILES>
CCCC(C)(C)ON(O)O

$$$$
