formic acid
  SciTegic05311115012D

  3  2  0  0  0  0            999 V2000
    0.0000    0.0000    0.0000 O   0  0
    0.0000    0.0000    0.0000 C   0  0
    0.0000    0.0000    0.0000 O   0  0
  1  2  1  0
  2  3  2  0
M  END
> <Name>
formic acid

> <CAS>
000064-18-6

> <ID Model>
7

> <HOMO>
-11.5

> <D_PathSumFRel>
0

> <G_ClBrI>
0

> <SeaC2C2aa>
0

> <logkOH_EXP>
12.5

> <logkOH PRED>
11.7

> <Hat>
0.018

> <Hat Rif>
0.08

> <smiles>
OC=O

> <Mol Id>
7

$$$$
methanol
  SciTegic05311115012D

  2  1  0  0  0  0            999 V2000
    0.0000    0.0000    0.0000 C   0  0
    0.0000    0.0000    0.0000 O   0  0
  1  2  1  0
M  END
> <Name>
methanol

> <CAS>
000067-56-1

> <ID Model>
9

> <HOMO>
-11.13

> <D_PathSumFRel>
0

> <G_ClBrI>
0

> <SeaC2C2aa>
0

> <logkOH_EXP>
12.03

> <logkOH PRED>
11.45

> <Hat>
0.012

> <Hat Rif>
0.08

> <smiles>
CO

> <Mol Id>
9

$$$$
2-propanol
  SciTegic05311115012D

  4  3  0  0  0  0            999 V2000
    0.0000    0.0000    0.0000 C   0  0
    0.0000    0.0000    0.0000 C   0  0
    0.0000    0.0000    0.0000 C   0  0
    0.0000    0.0000    0.0000 O   0  0
  1  2  1  0
  2  3  1  0
  2  4  1  0
M  END
> <Name>
2-propanol

> <CAS>
000067-63-0

> <ID Model>
10

> <HOMO>
-10.9

> <D_PathSumFRel>
0

> <G_ClBrI>
0

> <SeaC2C2aa>
0

> <logkOH_EXP>
11.26

> <logkOH PRED>
11.3

> <Hat>
0.01

> <Hat Rif>
0.08

> <smiles>
CC(C)O

> <Mol Id>
10

$$$$
1-propanol
  SciTegic05311115012D

  4  3  0  0  0  0            999 V2000
    0.0000    0.0000    0.0000 C   0  0
    0.0000    0.0000    0.0000 C   0  0
    0.0000    0.0000    0.0000 C   0  0
    0.0000    0.0000    0.0000 O   0  0
  1  2  1  0
  2  3  1  0
  3  4  1  0
M  END
> <Name>
1-propanol

> <CAS>
000071-23-8

> <ID Model>
13

> <HOMO>
-10.85

> <D_PathSumFRel>
0

> <G_ClBrI>
0

> <SeaC2C2aa>
0

> <logkOH_EXP>
11.27

> <logkOH PRED>
11.26

> <Hat>
0.009

> <Hat Rif>
0.08

> <smiles>
CCCO

> <Mol Id>
13

$$$$
1,1,1-trichloroethane
  SciTegic05311115012D

  5  4  0  0  0  0            999 V2000
    0.0000    0.0000    0.0000 C   0  0
    0.0000    0.0000    0.0000 C   0  0
    0.0000    0.0000    0.0000 Cl  0  0
    0.0000    0.0000    0.0000 Cl  0  0
    0.0000    0.0000    0.0000 Cl  0  0
  1  2  1  0
  2  3  1  0
  2  4  1  0
  2  5  1  0
M  END
> <Name>
1,1,1-trichloroethane

> <CAS>
000071-55-6

> <ID Model>
17

> <HOMO>
-11.99

> <D_PathSumFRel>
0

> <G_ClBrI>
3

> <SeaC2C2aa>
0

> <logkOH_EXP>
13.8

> <logkOH PRED>
13.26

> <Hat>
0.117*

> <Hat Rif>
0.08

> <smiles>
CC(Cl)(Cl)Cl

> <Mol Id>
17

$$$$
methylamine
  SciTegic05311115012D

  2  1  0  0  0  0            999 V2000
    0.0000    0.0000    0.0000 C   0  0
    0.0000    0.0000    0.0000 N   0  0
  1  2  1  0
M  END
> <Name>
methylamine

> <CAS>
000074-89-5

> <ID Model>
23

> <HOMO>
-9.76

> <D_PathSumFRel>
0

> <G_ClBrI>
0

> <SeaC2C2aa>
0

> <logkOH_EXP>
10.66

> <logkOH PRED>
10.53

> <Hat>
0.009

> <Hat Rif>
0.08

> <smiles>
CN

> <Mol Id>
23

$$$$
1-fluoroethene
  SciTegic05311115012D

  3  2  0  0  0  0            999 V2000
    0.0000    0.0000    0.0000 F   0  0
    0.0000    0.0000    0.0000 C   0  0
    0.0000    0.0000    0.0000 C   0  0
  1  2  1  0
  2  3  2  0
M  END
> <Name>
1-fluoroethene

> <CAS>
000075-02-5

> <ID Model>
31

> <HOMO>
-10.24

> <D_PathSumFRel>
0.75

> <G_ClBrI>
0

> <SeaC2C2aa>
0

> <logkOH_EXP>
11.26

> <logkOH PRED>
11.91

> <Hat>
0.059

> <Hat Rif>
0.08

> <smiles>
FC=C

> <Mol Id>
31

$$$$
epoxyethane
  SciTegic05311115012D

  3  3  0  0  0  0            999 V2000
    0.0000    0.0000    0.0000 C   0  0
    0.0000    0.0000    0.0000 C   0  0
    0.0000    0.0000    0.0000 O   0  0
  1  3  1  0
  1  2  1  0
  2  3  1  0
M  END
> <Name>
epoxyethane

> <CAS>
000075-21-8

> <ID Model>
39

> <HOMO>
-11.33

> <D_PathSumFRel>
0

> <G_ClBrI>
0

> <SeaC2C2aa>
0

> <logkOH_EXP>
13.1

> <logkOH PRED>
11.59

> <Hat>
0.015

> <Hat Rif>
0.08

> <smiles>
C1CO1

> <Mol Id>
39

$$$$
dichloro, fluoromethane
  SciTegic05311115012D

  4  3  0  0  0  0            999 V2000
    0.0000    0.0000    0.0000 F   0  0
    0.0000    0.0000    0.0000 C   0  0
    0.0000    0.0000    0.0000 Cl  0  0
    0.0000    0.0000    0.0000 Cl  0  0
  1  2  1  0
  2  3  1  0
  2  4  1  0
M  END
> <Name>
dichloro, fluoromethane

> <CAS>
000075-43-4

> <ID Model>
48

> <HOMO>
-12.03

> <D_PathSumFRel>
0.5555556

> <G_ClBrI>
2

> <SeaC2C2aa>
0

> <logkOH_EXP>
13.54

> <logkOH PRED>
13.67

> <Hat>
0.069

> <Hat Rif>
0.08

> <smiles>
FC(Cl)Cl

> <Mol Id>
48

$$$$
chloro,difluoromethane
  SciTegic05311115012D

  4  3  0  0  0  0            999 V2000
    0.0000    0.0000    0.0000 F   0  0
    0.0000    0.0000    0.0000 C   0  0
    0.0000    0.0000    0.0000 F   0  0
    0.0000    0.0000    0.0000 Cl  0  0
  1  2  1  0
  2  3  1  0
  2  4  1  0
M  END
> <Name>
chloro,difluoromethane

> <CAS>
000075-45-6

> <ID Model>
49

> <HOMO>
-12.28

> <D_PathSumFRel>
1.111111

> <G_ClBrI>
1

> <SeaC2C2aa>
0

> <logkOH_EXP>
14.32

> <logkOH PRED>
14.21

> <Hat>
0.111*

> <Hat Rif>
0.08

> <smiles>
FC(F)Cl

> <Mol Id>
49

$$$$
trifluoromethane
  SciTegic05311115012D

  4  3  0  0  0  0            999 V2000
    0.0000    0.0000    0.0000 F   0  0
    0.0000    0.0000    0.0000 C   0  0
    0.0000    0.0000    0.0000 F   0  0
    0.0000    0.0000    0.0000 F   0  0
  1  2  1  0
  2  3  1  0
  2  4  1  0
M  END
> <Name>
trifluoromethane

> <CAS>
000075-46-7

> <ID Model>
50

> <HOMO>
-13.31

> <D_PathSumFRel>
1.666667

> <G_ClBrI>
0

> <SeaC2C2aa>
0

> <logkOH_EXP>
15.7

> <logkOH PRED>
15.28

> <Hat>
0.245*

> <Hat Rif>
0.08

> <smiles>
FC(F)F

> <Mol Id>
50

$$$$
trimethyl-amine
  SciTegic05311115012D

  4  3  0  0  0  0            999 V2000
    0.0000    0.0000    0.0000 C   0  0
    0.0000    0.0000    0.0000 N   0  0
    0.0000    0.0000    0.0000 C   0  0
    0.0000    0.0000    0.0000 C   0  0
  1  2  1  0
  2  3  1  0
  2  4  1  0
M  END
> <Name>
trimethyl-amine

> <CAS>
000075-50-3

> <ID Model>
51

> <HOMO>
-9.12

> <D_PathSumFRel>
0

> <G_ClBrI>
0

> <SeaC2C2aa>
0

> <logkOH_EXP>
10.22

> <logkOH PRED>
10.1

> <Hat>
0.017

> <Hat Rif>
0.08

> <smiles>
CN(C)C

> <Mol Id>
51

$$$$
2-methyl-2-propanol
  SciTegic05311115012D

  5  4  0  0  0  0            999 V2000
    0.0000    0.0000    0.0000 C   0  0
    0.0000    0.0000    0.0000 C   0  0
    0.0000    0.0000    0.0000 C   0  0
    0.0000    0.0000    0.0000 C   0  0
    0.0000    0.0000    0.0000 O   0  0
  1  2  1  0
  2  3  1  0
  2  4  1  0
  2  5  1  0
M  END
> <Name>
2-methyl-2-propanol

> <CAS>
000075-65-0

> <ID Model>
53

> <HOMO>
-10.99

> <D_PathSumFRel>
0

> <G_ClBrI>
0

> <SeaC2C2aa>
0

> <logkOH_EXP>
11.97

> <logkOH PRED>
11.36

> <Hat>
0.011

> <Hat Rif>
0.08

> <smiles>
CC(C)(C)O

> <Mol Id>
53

$$$$
2-methyl-2-propanethiol
  SciTegic05311115012D

  5  4  0  0  0  0            999 V2000
    0.0000    0.0000    0.0000 C   0  0
    0.0000    0.0000    0.0000 C   0  0
    0.0000    0.0000    0.0000 C   0  0
    0.0000    0.0000    0.0000 C   0  0
    0.0000    0.0000    0.0000 S   0  0
  1  2  1  0
  2  3  1  0
  2  4  1  0
  2  5  1  0
M  END
> <Name>
2-methyl-2-propanethiol

> <CAS>
000075-66-1

> <ID Model>
54

> <HOMO>
-8.89

> <D_PathSumFRel>
0

> <G_ClBrI>
0

> <SeaC2C2aa>
0

> <logkOH_EXP>
10.47

> <logkOH PRED>
9.94

> <Hat>
0.021

> <Hat Rif>
0.08

> <smiles>
CC(C)(C)S

> <Mol Id>
54

$$$$
2,2-dimethylbutane
  SciTegic05311115012D

  6  5  0  0  0  0            999 V2000
    0.0000    0.0000    0.0000 C   0  0
    0.0000    0.0000    0.0000 C   0  0
    0.0000    0.0000    0.0000 C   0  0
    0.0000    0.0000    0.0000 C   0  0
    0.0000    0.0000    0.0000 C   0  0
    0.0000    0.0000    0.0000 C   0  0
  1  2  1  0
  2  3  1  0
  3  4  1  0
  3  5  1  0
  3  6  1  0
M  END
> <Name>
2,2-dimethylbutane

> <CAS>
000075-83-2

> <ID Model>
56

> <HOMO>
-11.18

> <D_PathSumFRel>
0

> <G_ClBrI>
0

> <SeaC2C2aa>
0

> <logkOH_EXP>
11.58

> <logkOH PRED>
11.49

> <Hat>
0.013

> <Hat Rif>
0.08

> <smiles>
CCC(C)(C)C

> <Mol Id>
56

$$$$
1-chloro-2,2,2-trifluoroethane
  SciTegic05311115012D

  6  5  0  0  0  0            999 V2000
    0.0000    0.0000    0.0000 F   0  0
    0.0000    0.0000    0.0000 C   0  0
    0.0000    0.0000    0.0000 F   0  0
    0.0000    0.0000    0.0000 F   0  0
    0.0000    0.0000    0.0000 C   0  0
    0.0000    0.0000    0.0000 Cl  0  0
  1  2  1  0
  2  3  1  0
  2  4  1  0
  2  5  1  0
  5  6  1  0
M  END
> <Name>
1-chloro-2,2,2-trifluoroethane

> <CAS>
000075-88-7

> <ID Model>
57

> <HOMO>
-12.09

> <D_PathSumFRel>
1.071429

> <G_ClBrI>
1

> <SeaC2C2aa>
0

> <logkOH_EXP>
13.98

> <logkOH PRED>
14.03

> <Hat>
0.103*

> <Hat Rif>
0.08

> <smiles>
FC(F)(F)CCl

> <Mol Id>
57

$$$$
2-methyl-1-propanal
  SciTegic05311115012D

  5  4  0  0  0  0            999 V2000
    0.0000    0.0000    0.0000 C   0  0
    0.0000    0.0000    0.0000 C   0  0
    0.0000    0.0000    0.0000 C   0  0
    0.0000    0.0000    0.0000 C   0  0
    0.0000    0.0000    0.0000 O   0  0
  1  2  1  0
  2  3  1  0
  2  4  1  0
  4  5  2  0
M  END
> <Name>
2-methyl-1-propanal

> <CAS>
000078-84-2

> <ID Model>
64

> <HOMO>
-10.46

> <D_PathSumFRel>
0

> <G_ClBrI>
0

> <SeaC2C2aa>
0

> <logkOH_EXP>
10.54

> <logkOH PRED>
11

> <Hat>
0.007

> <Hat Rif>
0.08

> <smiles>
CC(C)C=O

> <Mol Id>
64

$$$$
methylglyoxal
  SciTegic05311115012D

  5  4  0  0  0  0            999 V2000
    0.0000    0.0000    0.0000 C   0  0
    0.0000    0.0000    0.0000 C   0  0
    0.0000    0.0000    0.0000 O   0  0
    0.0000    0.0000    0.0000 C   0  0
    0.0000    0.0000    0.0000 O   0  0
  1  2  1  0
  2  3  2  0
  2  4  1  0
  4  5  2  0
M  END
> <Name>
methylglyoxal

> <CAS>
000078-98-8

> <ID Model>
69

> <HOMO>
-10.54

> <D_PathSumFRel>
0

> <G_ClBrI>
0

> <SeaC2C2aa>
0

> <logkOH_EXP>
10.76

> <logkOH PRED>
11.05

> <Hat>
0.007

> <Hat Rif>
0.08

> <smiles>
CC(=O)C=O

> <Mol Id>
69

$$$$
1,1,2-trichloroethane
  SciTegic05311115012D

  5  4  0  0  0  0            999 V2000
    0.0000    0.0000    0.0000 Cl  0  0
    0.0000    0.0000    0.0000 C   0  0
    0.0000    0.0000    0.0000 C   0  0
    0.0000    0.0000    0.0000 Cl  0  0
    0.0000    0.0000    0.0000 Cl  0  0
  1  2  1  0
  2  3  1  0
  3  4  1  0
  3  5  1  0
M  END
> <Name>
1,1,2-trichloroethane

> <CAS>
000079-00-5

> <ID Model>
70

> <HOMO>
-11.57

> <D_PathSumFRel>
0

> <G_ClBrI>
3

> <SeaC2C2aa>
0

> <logkOH_EXP>
12.5

> <logkOH PRED>
12.98

> <Hat>
0.113*

> <Hat Rif>
0.08

> <smiles>
ClCC(Cl)Cl

> <Mol Id>
70

$$$$
propionic acid
  SciTegic05311115012D

  5  4  0  0  0  0            999 V2000
    0.0000    0.0000    0.0000 C   0  0
    0.0000    0.0000    0.0000 C   0  0
    0.0000    0.0000    0.0000 C   0  0
    0.0000    0.0000    0.0000 O   0  0
    0.0000    0.0000    0.0000 O   0  0
  1  2  1  0
  2  3  1  0
  3  4  1  0
  3  5  2  0
M  END
> <Name>
propionic acid

> <CAS>
000079-09-4

> <ID Model>
72

> <HOMO>
-11.44

> <D_PathSumFRel>
0

> <G_ClBrI>
0

> <SeaC2C2aa>
0

> <logkOH_EXP>
11.8

> <logkOH PRED>
11.66

> <Hat>
0.017

> <Hat Rif>
0.08

> <smiles>
CCC(O)=O

> <Mol Id>
72

$$$$
nitroethane
  SciTegic05311115012D

  5  4  0  0  0  0            999 V2000
    0.0000    0.0000    0.0000 C   0  0
    0.0000    0.0000    0.0000 C   0  0
    0.0000    0.0000    0.0000 N   0  0
    0.0000    0.0000    0.0000 O   0  0
    0.0000    0.0000    0.0000 O   0  0
  1  2  1  0
  2  3  1  0
  3  4  1  0
  3  5  1  0
M  END
> <Name>
nitroethane

> <CAS>
000079-24-3

> <ID Model>
74

> <HOMO>
-11.75

> <D_PathSumFRel>
0

> <G_ClBrI>
0

> <SeaC2C2aa>
0

> <logkOH_EXP>
12.82

> <logkOH PRED>
11.87

> <Hat>
0.023

> <Hat Rif>
0.08

> <smiles>
CCN(O)O

> <Mol Id>
74

$$$$
1,1,2,2-tetracloroethane
  SciTegic05311115012D

  6  5  0  0  0  0            999 V2000
    0.0000    0.0000    0.0000 Cl  0  0
    0.0000    0.0000    0.0000 C   0  0
    0.0000    0.0000    0.0000 Cl  0  0
    0.0000    0.0000    0.0000 C   0  0
    0.0000    0.0000    0.0000 Cl  0  0
    0.0000    0.0000    0.0000 Cl  0  0
  1  2  1  0
  2  3  1  0
  2  4  1  0
  4  5  1  0
  4  6  1  0
M  END
> <Name>
1,1,2,2-tetracloroethane

> <CAS>
000079-34-5

> <ID Model>
77

> <HOMO>
-11.65

> <D_PathSumFRel>
0

> <G_ClBrI>
4

> <SeaC2C2aa>
0

> <logkOH_EXP>
12.6

> <logkOH PRED>
13.44

> <Hat>
0.198*

> <Hat Rif>
0.08

> <smiles>
ClC(Cl)C(Cl)Cl

> <Mol Id>
77

$$$$
camphene
  SciTegic05311115012D

 12 13  0  0  0  0            999 V2000
    0.0000    0.0000    0.0000 C   0  0
    0.0000    0.0000    0.0000 C   0  0
    0.0000    0.0000    0.0000 C   0  0
    0.0000    0.0000    0.0000 C   0  0
    0.0000    0.0000    0.0000 H   0  0
    0.0000    0.0000    0.0000 C   0  0
    0.0000    0.0000    0.0000 C   0  0
    0.0000    0.0000    0.0000 C   0  0
    0.0000    0.0000    0.0000 H   0  0
    0.0000    0.0000    0.0000 C   0  0
    0.0000    0.0000    0.0000 C   0  0
    0.0000    0.0000    0.0000 C   0  0
  1  2  1  0
  2 11  1  0
  2  3  1  0
  2  4  1  0
  4  5  1  0
  4 10  1  0
  4  6  1  0
  6  7  1  0
  7  8  1  0
  8  9  1  0
  8 10  1  0
  8 11  1  0
 11 12  2  0
M  END
> <Name>
camphene

> <CAS>
000079-92-5

> <ID Model>
78

> <HOMO>
-9.72

> <D_PathSumFRel>
0

> <G_ClBrI>
0

> <SeaC2C2aa>
0

> <logkOH_EXP>
10.27

> <logkOH PRED>
10.5

> <Hat>
0.009

> <Hat Rif>
0.08

> <smiles>
CC1(C)[C@H]2CC[C@H](C2)C1=C

> <Mol Id>
78

$$$$
phenanthrene
  SciTegic05311115012D

 14 16  0  0  0  0            999 V2000
    0.0000    0.0000    0.0000 C   0  0
    0.0000    0.0000    0.0000 C   0  0
    0.0000    0.0000    0.0000 C   0  0
    0.0000    0.0000    0.0000 C   0  0
    0.0000    0.0000    0.0000 C   0  0
    0.0000    0.0000    0.0000 C   0  0
    0.0000    0.0000    0.0000 C   0  0
    0.0000    0.0000    0.0000 C   0  0
    0.0000    0.0000    0.0000 C   0  0
    0.0000    0.0000    0.0000 C   0  0
    0.0000    0.0000    0.0000 C   0  0
    0.0000    0.0000    0.0000 C   0  0
    0.0000    0.0000    0.0000 C   0  0
    0.0000    0.0000    0.0000 C   0  0
  1  6  1  0
  1  2  2  3
  2  3  1  0
  3 14  1  0
  3  4  2  3
  4  5  1  0
  4  7  1  0
  5  6  2  3
  7 12  1  0
  7  8  2  3
  8  9  1  0
  8 13  1  0
  9 10  2  3
 10 11  1  0
 11 12  2  3
 13 14  2  3
M  END
> <Name>
phenanthrene

> <CAS>
000085-01-8

> <ID Model>
81

> <HOMO>
-8.62

> <D_PathSumFRel>
0

> <G_ClBrI>
0

> <SeaC2C2aa>
21.21273

> <logkOH_EXP>
10.47

> <logkOH PRED>
11.08

> <Hat>
0.11*

> <Hat Rif>
0.08

> <smiles>
C1=CC2=C(C=C1)C1=C(C=CC=C1)C=C2

> <Mol Id>
81

$$$$
o-nitrotoluene
  SciTegic05311115012D

 10 10  0  0  0  0            999 V2000
    0.0000    0.0000    0.0000 C   0  0
    0.0000    0.0000    0.0000 C   0  0
    0.0000    0.0000    0.0000 C   0  0
    0.0000    0.0000    0.0000 C   0  0
    0.0000    0.0000    0.0000 C   0  0
    0.0000    0.0000    0.0000 C   0  0
    0.0000    0.0000    0.0000 C   0  0
    0.0000    0.0000    0.0000 N   0  0
    0.0000    0.0000    0.0000 O   0  0
    0.0000    0.0000    0.0000 O   0  0
  1  2  1  0
  2  7  1  0
  2  3  2  3
  3  4  1  0
  4  5  2  3
  5  6  1  0
  6  7  2  3
  7  8  1  0
  8  9  1  0
  8 10  1  0
M  END
> <Name>
o-nitrotoluene

> <CAS>
000088-72-2

> <ID Model>
84

> <HOMO>
-10.17

> <D_PathSumFRel>
0

> <G_ClBrI>
0

> <SeaC2C2aa>
8.063403

> <logkOH_EXP>
12.16

> <logkOH PRED>
11.31

> <Hat>
0.021

> <Hat Rif>
0.08

> <smiles>
CC1=CC=CC=C1N(O)O

> <Mol Id>
84

$$$$
naphthalene
  SciTegic05311115012D

 10 11  0  0  0  0            999 V2000
    0.0000    0.0000    0.0000 C   0  0
    0.0000    0.0000    0.0000 C   0  0
    0.0000    0.0000    0.0000 C   0  0
    0.0000    0.0000    0.0000 C   0  0
    0.0000    0.0000    0.0000 C   0  0
    0.0000    0.0000    0.0000 C   0  0
    0.0000    0.0000    0.0000 C   0  0
    0.0000    0.0000    0.0000 C   0  0
    0.0000    0.0000    0.0000 C   0  0
    0.0000    0.0000    0.0000 C   0  0
  1 10  1  0
  1  2  2  3
  2  3  1  0
  3  8  1  0
  3  4  2  3
  4  5  1  0
  5  6  2  3
  6  7  1  0
  7  8  2  3
  8  9  1  0
  9 10  2  3
M  END
> <Name>
naphthalene

> <CAS>
000091-20-3

> <ID Model>
87

> <HOMO>
-8.71

> <D_PathSumFRel>
0

> <G_ClBrI>
0

> <SeaC2C2aa>
17.74625

> <logkOH_EXP>
10.67

> <logkOH PRED>
10.93

> <Hat>
0.075

> <Hat Rif>
0.08

> <smiles>
C1=CC2=CC=CC=C2C=C1

> <Mol Id>
87

$$$$
1,2-dimethylbenzene
  SciTegic05311115012D

  8  8  0  0  0  0            999 V2000
    0.0000    0.0000    0.0000 C   0  0
    0.0000    0.0000    0.0000 C   0  0
    0.0000    0.0000    0.0000 C   0  0
    0.0000    0.0000    0.0000 C   0  0
    0.0000    0.0000    0.0000 C   0  0
    0.0000    0.0000    0.0000 C   0  0
    0.0000    0.0000    0.0000 C   0  0
    0.0000    0.0000    0.0000 C   0  0
  1  2  1  0
  2  7  1  0
  2  3  2  3
  3  4  1  0
  4  5  2  3
  5  6  1  0
  6  7  2  3
  7  8  1  0
M  END
> <Name>
1,2-dimethylbenzene

> <CAS>
000095-47-6

> <ID Model>
90

> <HOMO>
-9.17

> <D_PathSumFRel>
0

> <G_ClBrI>
0

> <SeaC2C2aa>
9.252014

> <logkOH_EXP>
10.91

> <logkOH PRED>
10.71

> <Hat>
0.021

> <Hat Rif>
0.08

> <smiles>
CC1=CC=CC=C1C

> <Mol Id>
90

$$$$
o-dichlorobenzene
  SciTegic05311115012D

  8  8  0  0  0  0            999 V2000
    0.0000    0.0000    0.0000 Cl  0  0
    0.0000    0.0000    0.0000 C   0  0
    0.0000    0.0000    0.0000 C   0  0
    0.0000    0.0000    0.0000 Cl  0  0
    0.0000    0.0000    0.0000 C   0  0
    0.0000    0.0000    0.0000 C   0  0
    0.0000    0.0000    0.0000 C   0  0
    0.0000    0.0000    0.0000 C   0  0
  1  2  1  0
  2  8  1  0
  2  3  2  3
  3  4  1  0
  3  5  1  0
  5  6  2  3
  6  7  1  0
  7  8  2  3
M  END
> <Name>
o-dichlorobenzene

> <CAS>
000095-50-1

> <ID Model>
92

> <HOMO>
-9.6

> <D_PathSumFRel>
0

> <G_ClBrI>
2

> <SeaC2C2aa>
7.898558

> <logkOH_EXP>
12.38

> <logkOH PRED>
11.73

> <Hat>
0.055

> <Hat Rif>
0.08

> <smiles>
ClC1=C(Cl)C=CC=C1

> <Mol Id>
92

$$$$
1,2,4-trimethylbenzene
  SciTegic05311115012D

  9  9  0  0  0  0            999 V2000
    0.0000    0.0000    0.0000 C   0  0
    0.0000    0.0000    0.0000 C   0  0
    0.0000    0.0000    0.0000 C   0  0
    0.0000    0.0000    0.0000 C   0  0
    0.0000    0.0000    0.0000 C   0  0
    0.0000    0.0000    0.0000 C   0  0
    0.0000    0.0000    0.0000 C   0  0
    0.0000    0.0000    0.0000 C   0  0
    0.0000    0.0000    0.0000 C   0  0
  1  2  1  0
  2  9  1  0
  2  3  2  3
  3  4  1  0
  4  5  2  3
  5  6  1  0
  5  7  1  0
  7  8  1  0
  7  9  2  3
M  END
> <Name>
1,2,4-trimethylbenzene

> <CAS>
000095-63-6

> <ID Model>
93

> <HOMO>
-8.96

> <D_PathSumFRel>
0

> <G_ClBrI>
0

> <SeaC2C2aa>
3.257448

> <logkOH_EXP>
10.49

> <logkOH PRED>
10.19

> <Hat>
0.014

> <Hat Rif>
0.08

> <smiles>
CC1=CC=C(C)C(C)=C1

> <Mol Id>
93

$$$$
t-butylbenzene
  SciTegic05311115012D

 10 10  0  0  0  0            999 V2000
    0.0000    0.0000    0.0000 C   0  0
    0.0000    0.0000    0.0000 C   0  0
    0.0000    0.0000    0.0000 C   0  0
    0.0000    0.0000    0.0000 C   0  0
    0.0000    0.0000    0.0000 C   0  0
    0.0000    0.0000    0.0000 C   0  0
    0.0000    0.0000    0.0000 C   0  0
    0.0000    0.0000    0.0000 C   0  0
    0.0000    0.0000    0.0000 C   0  0
    0.0000    0.0000    0.0000 C   0  0
  1  2  1  0
  2  3  1  0
  2  4  1  0
  2  5  1  0
  5 10  1  0
  5  6  2  3
  6  7  1  0
  7  8  2  3
  8  9  1  0
  9 10  2  3
M  END
> <Name>
t-butylbenzene

> <CAS>
000098-06-6

> <ID Model>
101

> <HOMO>
-9.36

> <D_PathSumFRel>
0

> <G_ClBrI>
0

> <SeaC2C2aa>
12.86499

> <logkOH_EXP>
11.34

> <logkOH PRED>
11.06

> <Hat>
0.041

> <Hat Rif>
0.08

> <smiles>
CC(C)(C)C1=CC=CC=C1

> <Mol Id>
101

$$$$
4-chlorobenzotrifluoride
  SciTegic05311115012D

 11 11  0  0  0  0            999 V2000
    0.0000    0.0000    0.0000 F   0  0
    0.0000    0.0000    0.0000 C   0  0
    0.0000    0.0000    0.0000 F   0  0
    0.0000    0.0000    0.0000 F   0  0
    0.0000    0.0000    0.0000 C   0  0
    0.0000    0.0000    0.0000 C   0  0
    0.0000    0.0000    0.0000 C   0  0
    0.0000    0.0000    0.0000 C   0  0
    0.0000    0.0000    0.0000 Cl  0  0
    0.0000    0.0000    0.0000 C   0  0
    0.0000    0.0000    0.0000 C   0  0
  1  2  1  0
  2  3  1  0
  2  4  1  0
  2  5  1  0
  5 11  1  0
  5  6  2  3
  6  7  1  0
  7  8  2  3
  8  9  1  0
  8 10  1  0
 10 11  2  3
M  END
> <Name>
4-chlorobenzotrifluoride

> <CAS>
000098-56-6

> <ID Model>
103

> <HOMO>
-10.21

> <D_PathSumFRel>
0.6315789

> <G_ClBrI>
1

> <SeaC2C2aa>
4.429205

> <logkOH_EXP>
12.62

> <logkOH PRED>
12.41

> <Hat>
0.048

> <Hat Rif>
0.08

> <smiles>
FC(F)(F)C1=CC=C(Cl)C=C1

> <Mol Id>
103

$$$$
m-nitrotoluene
  SciTegic05311115012D

 10 10  0  0  0  0            999 V2000
    0.0000    0.0000    0.0000 C   0  0
    0.0000    0.0000    0.0000 C   0  0
    0.0000    0.0000    0.0000 C   0  0
    0.0000    0.0000    0.0000 C   0  0
    0.0000    0.0000    0.0000 C   0  0
    0.0000    0.0000    0.0000 C   0  0
    0.0000    0.0000    0.0000 C   0  0
    0.0000    0.0000    0.0000 N   0  0
    0.0000    0.0000    0.0000 O   0  0
    0.0000    0.0000    0.0000 O   0  0
  1  2  1  0
  2  7  1  0
  2  3  2  3
  3  4  1  0
  4  5  2  3
  4  8  1  0
  5  6  1  0
  6  7  2  3
  8  9  1  0
  8 10  1  0
M  END
> <Name>
m-nitrotoluene

> <CAS>
000099-08-1

> <ID Model>
108

> <HOMO>
-10.2

> <D_PathSumFRel>
0

> <G_ClBrI>
0

> <SeaC2C2aa>
5.351655

> <logkOH_EXP>
12.02

> <logkOH PRED>
11.16

> <Hat>
0.011

> <Hat Rif>
0.08

> <smiles>
CC1=CC(=CC=C1)N(O)O

> <Mol Id>
108

$$$$
p-menthane
  SciTegic05311115012D

 10 10  0  0  0  0            999 V2000
    0.0000    0.0000    0.0000 C   0  0
    0.0000    0.0000    0.0000 C   0  0
    0.0000    0.0000    0.0000 C   0  0
    0.0000    0.0000    0.0000 C   0  0
    0.0000    0.0000    0.0000 C   0  0
    0.0000    0.0000    0.0000 C   0  0
    0.0000    0.0000    0.0000 C   0  0
    0.0000    0.0000    0.0000 C   0  0
    0.0000    0.0000    0.0000 C   0  0
    0.0000    0.0000    0.0000 C   0  0
  1  2  1  0
  2  3  1  0
  2  4  1  0
  4 10  1  0
  4  5  1  0
  5  6  1  0
  6  7  1  0
  7  8  1  0
  7  9  1  0
  9 10  1  0
M  END
> <Name>
p-menthane

> <CAS>
000099-82-1

> <ID Model>
109

> <HOMO>
-10.63

> <D_PathSumFRel>
0

> <G_ClBrI>
0

> <SeaC2C2aa>
0

> <logkOH_EXP>
11.18

> <logkOH PRED>
11.11

> <Hat>
0.008

> <Hat Rif>
0.08

> <smiles>
CC(C)C1CCC(C)CC1

> <Mol Id>
109

$$$$
g - terpinene
  SciTegic05311115012D

 10 10  0  0  0  0            999 V2000
    0.0000    0.0000    0.0000 C   0  0
    0.0000    0.0000    0.0000 C   0  0
    0.0000    0.0000    0.0000 C   0  0
    0.0000    0.0000    0.0000 C   0  0
    0.0000    0.0000    0.0000 C   0  0
    0.0000    0.0000    0.0000 C   0  0
    0.0000    0.0000    0.0000 C   0  0
    0.0000    0.0000    0.0000 C   0  0
    0.0000    0.0000    0.0000 C   0  0
    0.0000    0.0000    0.0000 C   0  0
  1  2  1  0
  2  3  1  0
  2  4  1  0
  4 10  1  0
  4  5  2  3
  5  6  1  0
  6  7  1  0
  7  8  1  0
  7  9  2  3
  9 10  1  0
M  END
> <Name>
g - terpinene

> <CAS>
000099-85-4

> <ID Model>
111

> <HOMO>
-8.9

> <D_PathSumFRel>
0

> <G_ClBrI>
0

> <SeaC2C2aa>
0

> <logkOH_EXP>
9.75

> <logkOH PRED>
9.95

> <Hat>
0.021

> <Hat Rif>
0.08

> <smiles>
CC(C)C1=CCC(C)=CC1

> <Mol Id>
111

$$$$
a - terpinene
  SciTegic05311115012D

 10 10  0  0  0  0            999 V2000
    0.0000    0.0000    0.0000 C   0  0
    0.0000    0.0000    0.0000 C   0  0
    0.0000    0.0000    0.0000 C   0  0
    0.0000    0.0000    0.0000 C   0  0
    0.0000    0.0000    0.0000 C   0  0
    0.0000    0.0000    0.0000 C   0  0
    0.0000    0.0000    0.0000 C   0  0
    0.0000    0.0000    0.0000 C   0  0
    0.0000    0.0000    0.0000 C   0  0
    0.0000    0.0000    0.0000 C   0  0
  1  2  1  0
  2  3  1  0
  2  4  1  0
  4 10  1  0
  4  5  2  3
  5  6  1  0
  6  7  2  3
  7  8  1  0
  7  9  1  0
  9 10  1  0
M  END
> <Name>
a - terpinene

> <CAS>
000099-86-5

> <ID Model>
112

> <HOMO>
-8.44

> <D_PathSumFRel>
0

> <G_ClBrI>
0

> <SeaC2C2aa>
0

> <logkOH_EXP>
9.44

> <logkOH PRED>
9.64

> <Hat>
0.032

> <Hat Rif>
0.08

> <smiles>
CC(C)C1=CC=C(C)CC1

> <Mol Id>
112

$$$$
propylbenzene
  SciTegic05311115012D

  9  9  0  0  0  0            999 V2000
    0.0000    0.0000    0.0000 C   0  0
    0.0000    0.0000    0.0000 C   0  0
    0.0000    0.0000    0.0000 C   0  0
    0.0000    0.0000    0.0000 C   0  0
    0.0000    0.0000    0.0000 C   0  0
    0.0000    0.0000    0.0000 C   0  0
    0.0000    0.0000    0.0000 C   0  0
    0.0000    0.0000    0.0000 C   0  0
    0.0000    0.0000    0.0000 C   0  0
  1  2  1  0
  2  3  1  0
  3  4  1  0
  4  9  1  0
  4  5  2  3
  5  6  1  0
  6  7  2  3
  7  8  1  0
  8  9  2  3
M  END
> <Name>
propylbenzene

> <CAS>
000103-65-1

> <ID Model>
122

> <HOMO>
-9.37

> <D_PathSumFRel>
0

> <G_ClBrI>
0

> <SeaC2C2aa>
12.64785

> <logkOH_EXP>
11.22

> <logkOH PRED>
11.05

> <Hat>
0.039

> <Hat Rif>
0.08

> <smiles>
CCCC1=CC=CC=C1

> <Mol Id>
122

$$$$
ethyl propionate
  SciTegic05311115012D

  7  6  0  0  0  0            999 V2000
    0.0000    0.0000    0.0000 C   0  0
    0.0000    0.0000    0.0000 C   0  0
    0.0000    0.0000    0.0000 O   0  0
    0.0000    0.0000    0.0000 C   0  0
    0.0000    0.0000    0.0000 O   0  0
    0.0000    0.0000    0.0000 C   0  0
    0.0000    0.0000    0.0000 C   0  0
  1  2  1  0
  2  3  1  0
  3  4  1  0
  4  5  2  0
  4  6  1  0
  6  7  1  0
M  END
> <Name>
ethyl propionate

> <CAS>
000105-37-3

> <ID Model>
123

> <HOMO>
-11.22

> <D_PathSumFRel>
0

> <G_ClBrI>
0

> <SeaC2C2aa>
0

> <logkOH_EXP>
11.78

> <logkOH PRED>
11.51

> <Hat>
0.013

> <Hat Rif>
0.08

> <smiles>
CCOC(=O)CC

> <Mol Id>
123

$$$$
ethyl butyrate
  SciTegic05311115012D

  8  7  0  0  0  0            999 V2000
    0.0000    0.0000    0.0000 C   0  0
    0.0000    0.0000    0.0000 C   0  0
    0.0000    0.0000    0.0000 C   0  0
    0.0000    0.0000    0.0000 C   0  0
    0.0000    0.0000    0.0000 O   0  0
    0.0000    0.0000    0.0000 O   0  0
    0.0000    0.0000    0.0000 C   0  0
    0.0000    0.0000    0.0000 C   0  0
  1  2  1  0
  2  3  1  0
  3  4  1  0
  4  5  2  0
  4  6  1  0
  6  7  1  0
  7  8  1  0
M  END
> <Name>
ethyl butyrate

> <CAS>
000105-54-4

> <ID Model>
125

> <HOMO>
-11.21

> <D_PathSumFRel>
0

> <G_ClBrI>
0

> <SeaC2C2aa>
0

> <logkOH_EXP>
11.31

> <logkOH PRED>
11.51

> <Hat>
0.013

> <Hat Rif>
0.08

> <smiles>
CCCC(=O)OCC

> <Mol Id>
125

$$$$
propyl butyrate
  SciTegic05311115012D

  9  8  0  0  0  0            999 V2000
    0.0000    0.0000    0.0000 C   0  0
    0.0000    0.0000    0.0000 C   0  0
    0.0000    0.0000    0.0000 C   0  0
    0.0000    0.0000    0.0000 O   0  0
    0.0000    0.0000    0.0000 C   0  0
    0.0000    0.0000    0.0000 O   0  0
    0.0000    0.0000    0.0000 C   0  0
    0.0000    0.0000    0.0000 C   0  0
    0.0000    0.0000    0.0000 C   0  0
  1  2  1  0
  2  3  1  0
  3  4  1  0
  4  5  1  0
  5  6  2  0
  5  7  1  0
  7  8  1  0
  8  9  1  0
M  END
> <Name>
propyl butyrate

> <CAS>
000105-66-8

> <ID Model>
126

> <HOMO>
-11.16

> <D_PathSumFRel>
0

> <G_ClBrI>
0

> <SeaC2C2aa>
0

> <logkOH_EXP>
11.13

> <logkOH PRED>
11.47

> <Hat>
0.013

> <Hat Rif>
0.08

> <smiles>
CCCOC(=O)CCC

> <Mol Id>
126

$$$$
2,4-dimethylphenol
  SciTegic05311115012D

  9  9  0  0  0  0            999 V2000
    0.0000    0.0000    0.0000 C   0  0
    0.0000    0.0000    0.0000 C   0  0
    0.0000    0.0000    0.0000 C   0  0
    0.0000    0.0000    0.0000 C   0  0
    0.0000    0.0000    0.0000 C   0  0
    0.0000    0.0000    0.0000 O   0  0
    0.0000    0.0000    0.0000 C   0  0
    0.0000    0.0000    0.0000 C   0  0
    0.0000    0.0000    0.0000 C   0  0
  1  2  1  0
  2  9  1  0
  2  3  2  3
  3  4  1  0
  4  5  2  3
  5  6  1  0
  5  7  1  0
  7  8  1  0
  7  9  2  3
M  END
> <Name>
2,4-dimethylphenol

> <CAS>
000105-67-9

> <ID Model>
127

> <HOMO>
-8.77

> <D_PathSumFRel>
0

> <G_ClBrI>
0

> <SeaC2C2aa>
2.785226

> <logkOH_EXP>
10.15

> <logkOH PRED>
10.03

> <Hat>
0.017

> <Hat Rif>
0.08

> <smiles>
CC1=CC=C(O)C(C)=C1

> <Mol Id>
127

$$$$
propyl propionate
  SciTegic05311115012D

  8  7  0  0  0  0            999 V2000
    0.0000    0.0000    0.0000 C   0  0
    0.0000    0.0000    0.0000 C   0  0
    0.0000    0.0000    0.0000 C   0  0
    0.0000    0.0000    0.0000 O   0  0
    0.0000    0.0000    0.0000 C   0  0
    0.0000    0.0000    0.0000 O   0  0
    0.0000    0.0000    0.0000 C   0  0
    0.0000    0.0000    0.0000 C   0  0
  1  2  1  0
  2  3  1  0
  3  4  1  0
  4  5  1  0
  5  6  2  0
  5  7  1  0
  7  8  1  0
M  END
> <Name>
propyl propionate

> <CAS>
000106-36-5

> <ID Model>
128

> <HOMO>
-11.16

> <D_PathSumFRel>
0

> <G_ClBrI>
0

> <SeaC2C2aa>
0

> <logkOH_EXP>
11.4

> <logkOH PRED>
11.47

> <Hat>
0.013

> <Hat Rif>
0.08

> <smiles>
CCCOC(=O)CC

> <Mol Id>
128

$$$$
p-cresol
  SciTegic05311115012D

  8  8  0  0  0  0            999 V2000
    0.0000    0.0000    0.0000 C   0  0
    0.0000    0.0000    0.0000 C   0  0
    0.0000    0.0000    0.0000 C   0  0
    0.0000    0.0000    0.0000 C   0  0
    0.0000    0.0000    0.0000 C   0  0
    0.0000    0.0000    0.0000 O   0  0
    0.0000    0.0000    0.0000 C   0  0
    0.0000    0.0000    0.0000 C   0  0
  1  2  1  0
  2  8  1  0
  2  3  2  3
  3  4  1  0
  4  5  2  3
  5  6  1  0
  5  7  1  0
  7  8  2  3
M  END
> <Name>
p-cresol

> <CAS>
000106-44-5

> <ID Model>
130

> <HOMO>
-8.88

> <D_PathSumFRel>
0

> <G_ClBrI>
0

> <SeaC2C2aa>
5.37037

> <logkOH_EXP>
10.32

> <logkOH PRED>
10.27

> <Hat>
0.015

> <Hat Rif>
0.08

> <smiles>
CC1=CC=C(O)C=C1

> <Mol Id>
130

$$$$
1,3-butadiene
  SciTegic05311115012D

  4  3  0  0  0  0            999 V2000
    0.0000    0.0000    0.0000 C   0  0
    0.0000    0.0000    0.0000 C   0  0
    0.0000    0.0000    0.0000 C   0  0
    0.0000    0.0000    0.0000 C   0  0
  1  2  2  0
  2  3  1  0
  3  4  2  0
M  END
> <Name>
1,3-butadiene

> <CAS>
000106-99-0

> <ID Model>
138

> <HOMO>
-9.33

> <D_PathSumFRel>
0

> <G_ClBrI>
0

> <SeaC2C2aa>
0

> <logkOH_EXP>
10.17

> <logkOH PRED>
10.24

> <Hat>
0.013

> <Hat Rif>
0.08

> <smiles>
C=CC=C

> <Mol Id>
138

$$$$
acrolein
  SciTegic05311115012D

  4  3  0  0  0  0            999 V2000
    0.0000    0.0000    0.0000 C   0  0
    0.0000    0.0000    0.0000 C   0  0
    0.0000    0.0000    0.0000 C   0  0
    0.0000    0.0000    0.0000 O   0  0
  1  2  2  0
  2  3  1  0
  3  4  2  0
M  END
> <Name>
acrolein

> <CAS>
000107-02-8

> <ID Model>
140

> <HOMO>
-10.69

> <D_PathSumFRel>
0

> <G_ClBrI>
0

> <SeaC2C2aa>
0

> <logkOH_EXP>
10.72

> <logkOH PRED>
11.15

> <Hat>
0.008

> <Hat Rif>
0.08

> <smiles>
C=CC=O

> <Mol Id>
140

$$$$
propanethiol
  SciTegic05311115012D

  4  3  0  0  0  0            999 V2000
    0.0000    0.0000    0.0000 C   0  0
    0.0000    0.0000    0.0000 C   0  0
    0.0000    0.0000    0.0000 C   0  0
    0.0000    0.0000    0.0000 S   0  0
  1  2  1  0
  2  3  1  0
  3  4  1  0
M  END
> <Name>
propanethiol

> <CAS>
000107-03-9

> <ID Model>
141

> <HOMO>
-8.91

> <D_PathSumFRel>
0

> <G_ClBrI>
0

> <SeaC2C2aa>
0

> <logkOH_EXP>
10.34

> <logkOH PRED>
9.96

> <Hat>
0.021

> <Hat Rif>
0.08

> <smiles>
CCCS

> <Mol Id>
141

$$$$
3-chloro-1-propene
  SciTegic05311115012D

  4  3  0  0  0  0            999 V2000
    0.0000    0.0000    0.0000 Cl  0  0
    0.0000    0.0000    0.0000 C   0  0
    0.0000    0.0000    0.0000 C   0  0
    0.0000    0.0000    0.0000 C   0  0
  1  2  1  0
  2  3  1  0
  3  4  2  0
M  END
> <Name>
3-chloro-1-propene

> <CAS>
000107-05-1

> <ID Model>
142

> <HOMO>
-10.33

> <D_PathSumFRel>
0

> <G_ClBrI>
1

> <SeaC2C2aa>
0

> <logkOH_EXP>
10.77

> <logkOH PRED>
11.32

> <Hat>
0.015

> <Hat Rif>
0.08

> <smiles>
ClCC=C

> <Mol Id>
142

$$$$
1,2-dichloroethane
  SciTegic05311115012D

  4  3  0  0  0  0            999 V2000
    0.0000    0.0000    0.0000 Cl  0  0
    0.0000    0.0000    0.0000 C   0  0
    0.0000    0.0000    0.0000 C   0  0
    0.0000    0.0000    0.0000 Cl  0  0
  1  2  1  0
  2  3  1  0
  3  4  1  0
M  END
> <Name>
1,2-dichloroethane

> <CAS>
000107-06-2

> <ID Model>
143

> <HOMO>
-11.42

> <D_PathSumFRel>
0

> <G_ClBrI>
2

> <SeaC2C2aa>
0

> <logkOH_EXP>
12.66

> <logkOH PRED>
12.47

> <Hat>
0.053

> <Hat Rif>
0.08

> <smiles>
ClCCCl

> <Mol Id>
143

$$$$
methoxyethene
  SciTegic05311115012D

  4  3  0  0  0  0            999 V2000
    0.0000    0.0000    0.0000 C   0  0
    0.0000    0.0000    0.0000 O   0  0
    0.0000    0.0000    0.0000 C   0  0
    0.0000    0.0000    0.0000 C   0  0
  1  2  1  0
  2  3  1  0
  3  4  2  0
M  END
> <Name>
methoxyethene

> <CAS>
000107-25-5

> <ID Model>
149

> <HOMO>
-9.41

> <D_PathSumFRel>
0

> <G_ClBrI>
0

> <SeaC2C2aa>
0

> <logkOH_EXP>
10.48

> <logkOH PRED>
10.29

> <Hat>
0.012

> <Hat Rif>
0.08

> <smiles>
COC=C

> <Mol Id>
149

$$$$
2-pentanone
  SciTegic05311115012D

  6  5  0  0  0  0            999 V2000
    0.0000    0.0000    0.0000 C   0  0
    0.0000    0.0000    0.0000 C   0  0
    0.0000    0.0000    0.0000 C   0  0
    0.0000    0.0000    0.0000 C   0  0
    0.0000    0.0000    0.0000 C   0  0
    0.0000    0.0000    0.0000 O   0  0
  1  2  1  0
  2  3  1  0
  3  4  1  0
  4  5  1  0
  4  6  2  0
M  END
> <Name>
2-pentanone

> <CAS>
000107-87-9

> <ID Model>
152

> <HOMO>
-10.53

> <D_PathSumFRel>
0

> <G_ClBrI>
0

> <SeaC2C2aa>
0

> <logkOH_EXP>
11.3

> <logkOH PRED>
11.05

> <Hat>
0.007

> <Hat Rif>
0.08

> <smiles>
CCCC(C)=O

> <Mol Id>
152

$$$$
butyric acid
  SciTegic05311115012D

  6  5  0  0  0  0            999 V2000
    0.0000    0.0000    0.0000 C   0  0
    0.0000    0.0000    0.0000 C   0  0
    0.0000    0.0000    0.0000 C   0  0
    0.0000    0.0000    0.0000 C   0  0
    0.0000    0.0000    0.0000 O   0  0
    0.0000    0.0000    0.0000 O   0  0
  1  2  1  0
  2  3  1  0
  3  4  1  0
  4  5  1  0
  4  6  2  0
M  END
> <Name>
butyric acid

> <CAS>
000107-92-6

> <ID Model>
153

> <HOMO>
-11.45

> <D_PathSumFRel>
0

> <G_ClBrI>
0

> <SeaC2C2aa>
0

> <logkOH_EXP>
11.62

> <logkOH PRED>
11.67

> <Hat>
0.017

> <Hat Rif>
0.08

> <smiles>
CCCC(O)=O

> <Mol Id>
153

$$$$
4-methyl-2-pentanone
  SciTegic05311115012D

  7  6  0  0  0  0            999 V2000
    0.0000    0.0000    0.0000 C   0  0
    0.0000    0.0000    0.0000 C   0  0
    0.0000    0.0000    0.0000 C   0  0
    0.0000    0.0000    0.0000 C   0  0
    0.0000    0.0000    0.0000 C   0  0
    0.0000    0.0000    0.0000 C   0  0
    0.0000    0.0000    0.0000 O   0  0
  1  2  1  0
  2  3  1  0
  2  4  1  0
  4  5  1  0
  5  6  1  0
  5  7  2  0
M  END
> <Name>
4-methyl-2-pentanone

> <CAS>
000108-10-1

> <ID Model>
157

> <HOMO>
-10.49

> <D_PathSumFRel>
0

> <G_ClBrI>
0

> <SeaC2C2aa>
0

> <logkOH_EXP>
10.85

> <logkOH PRED>
11.02

> <Hat>
0.007

> <Hat Rif>
0.08

> <smiles>
CC(C)CC(C)=O

> <Mol Id>
157

$$$$
isopropyl acetate
  SciTegic05311115012D

  7  6  0  0  0  0            999 V2000
    0.0000    0.0000    0.0000 C   0  0
    0.0000    0.0000    0.0000 C   0  0
    0.0000    0.0000    0.0000 C   0  0
    0.0000    0.0000    0.0000 O   0  0
    0.0000    0.0000    0.0000 C   0  0
    0.0000    0.0000    0.0000 C   0  0
    0.0000    0.0000    0.0000 O   0  0
  1  2  1  0
  2  3  1  0
  2  4  1  0
  4  5  1  0
  5  6  1  0
  5  7  2  0
M  END
> <Name>
isopropyl acetate

> <CAS>
000108-21-4

> <ID Model>
159

> <HOMO>
-11.2

> <D_PathSumFRel>
0

> <G_ClBrI>
0

> <SeaC2C2aa>
0

> <logkOH_EXP>
11.51

> <logkOH PRED>
11.5

> <Hat>
0.013

> <Hat Rif>
0.08

> <smiles>
CC(C)OC(C)=O

> <Mol Id>
159

$$$$
1,3-dimethylbenzene
  SciTegic05311115012D

  8  8  0  0  0  0            999 V2000
    0.0000    0.0000    0.0000 C   0  0
    0.0000    0.0000    0.0000 C   0  0
    0.0000    0.0000    0.0000 C   0  0
    0.0000    0.0000    0.0000 C   0  0
    0.0000    0.0000    0.0000 C   0  0
    0.0000    0.0000    0.0000 C   0  0
    0.0000    0.0000    0.0000 C   0  0
    0.0000    0.0000    0.0000 C   0  0
  1  2  1  0
  2  8  1  0
  2  3  2  3
  3  4  1  0
  4  5  1  0
  4  6  2  3
  6  7  1  0
  7  8  2  3
M  END
> <Name>
1,3-dimethylbenzene

> <CAS>
000108-38-3

> <ID Model>
160

> <HOMO>
-9.19

> <D_PathSumFRel>
0

> <G_ClBrI>
0

> <SeaC2C2aa>
6.204711

> <logkOH_EXP>
10.64

> <logkOH PRED>
10.53

> <Hat>
0.013

> <Hat Rif>
0.08

> <smiles>
CC1=CC(C)=CC=C1

> <Mol Id>
160

$$$$
m-cresol
  SciTegic05311115012D

  8  8  0  0  0  0            999 V2000
    0.0000    0.0000    0.0000 C   0  0
    0.0000    0.0000    0.0000 C   0  0
    0.0000    0.0000    0.0000 C   0  0
    0.0000    0.0000    0.0000 C   0  0
    0.0000    0.0000    0.0000 C   0  0
    0.0000    0.0000    0.0000 C   0  0
    0.0000    0.0000    0.0000 O   0  0
    0.0000    0.0000    0.0000 C   0  0
  1  2  1  0
  2  8  1  0
  2  3  2  3
  3  4  1  0
  4  5  2  3
  5  6  1  0
  6  7  1  0
  6  8  2  3
M  END
> <Name>
m-cresol

> <CAS>
000108-39-4

> <ID Model>
161

> <HOMO>
-9.04

> <D_PathSumFRel>
0

> <G_ClBrI>
0

> <SeaC2C2aa>
5.447489

> <logkOH_EXP>
10.17

> <logkOH PRED>
10.38

> <Hat>
0.013

> <Hat Rif>
0.08

> <smiles>
CC1=CC=CC(O)=C1

> <Mol Id>
161

$$$$
2,6-dimethyl-4-heptanone
  SciTegic05311115012D

 10  9  0  0  0  0            999 V2000
    0.0000    0.0000    0.0000 C   0  0
    0.0000    0.0000    0.0000 C   0  0
    0.0000    0.0000    0.0000 C   0  0
    0.0000    0.0000    0.0000 C   0  0
    0.0000    0.0000    0.0000 C   0  0
    0.0000    0.0000    0.0000 O   0  0
    0.0000    0.0000    0.0000 C   0  0
    0.0000    0.0000    0.0000 C   0  0
    0.0000    0.0000    0.0000 C   0  0
    0.0000    0.0000    0.0000 C   0  0
  1  2  1  0
  2  3  1  0
  2  4  1  0
  4  5  1  0
  5  6  2  0
  5  7  1  0
  7  8  1  0
  8  9  1  0
  8 10  1  0
M  END
> <Name>
2,6-dimethyl-4-heptanone

> <CAS>
000108-83-8

> <ID Model>
164

> <HOMO>
-10.34

> <D_PathSumFRel>
0

> <G_ClBrI>
0

> <SeaC2C2aa>
0

> <logkOH_EXP>
10.56

> <logkOH PRED>
10.92

> <Hat>
0.007

> <Hat Rif>
0.08

> <smiles>
CC(C)CC(=O)CC(C)C

> <Mol Id>
164

$$$$
chlorobenzene
  SciTegic05311115012D

  7  7  0  0  0  0            999 V2000
    0.0000    0.0000    0.0000 Cl  0  0
    0.0000    0.0000    0.0000 C   0  0
    0.0000    0.0000    0.0000 C   0  0
    0.0000    0.0000    0.0000 C   0  0
    0.0000    0.0000    0.0000 C   0  0
    0.0000    0.0000    0.0000 C   0  0
    0.0000    0.0000    0.0000 C   0  0
  1  2  1  0
  2  7  1  0
  2  3  2  3
  3  4  1  0
  4  5  2  3
  5  6  1  0
  6  7  2  3
M  END
> <Name>
chlorobenzene

> <CAS>
000108-90-7

> <ID Model>
168

> <HOMO>
-9.56

> <D_PathSumFRel>
0

> <G_ClBrI>
1

> <SeaC2C2aa>
10.91764

> <logkOH_EXP>
12.17

> <logkOH PRED>
11.48

> <Hat>
0.034

> <Hat Rif>
0.08

> <smiles>
ClC1=CC=CC=C1

> <Mol Id>
168

$$$$
cycloexanone
  SciTegic05311115012D

  7  7  0  0  0  0            999 V2000
    0.0000    0.0000    0.0000 O   0  0
    0.0000    0.0000    0.0000 C   0  0
    0.0000    0.0000    0.0000 C   0  0
    0.0000    0.0000    0.0000 C   0  0
    0.0000    0.0000    0.0000 C   0  0
    0.0000    0.0000    0.0000 C   0  0
    0.0000    0.0000    0.0000 C   0  0
  1  2  2  0
  2  7  1  0
  2  3  1  0
  3  4  1  0
  4  5  1  0
  5  6  1  0
  6  7  1  0
M  END
> <Name>
cycloexanone

> <CAS>
000108-94-1

> <ID Model>
169

> <HOMO>
-10.3

> <D_PathSumFRel>
0

> <G_ClBrI>
0

> <SeaC2C2aa>
0

> <logkOH_EXP>
11.19

> <logkOH PRED>
10.89

> <Hat>
0.007

> <Hat Rif>
0.08

> <smiles>
O=C1CCCCC1

> <Mol Id>
169

$$$$
thiophenol
  SciTegic05311115012D

  7  7  0  0  0  0            999 V2000
    0.0000    0.0000    0.0000 S   0  0
    0.0000    0.0000    0.0000 C   0  0
    0.0000    0.0000    0.0000 C   0  0
    0.0000    0.0000    0.0000 C   0  0
    0.0000    0.0000    0.0000 C   0  0
    0.0000    0.0000    0.0000 C   0  0
    0.0000    0.0000    0.0000 C   0  0
  1  2  1  0
  2  7  1  0
  2  3  2  3
  3  4  1  0
  4  5  2  3
  5  6  1  0
  6  7  2  3
M  END
> <Name>
thiophenol

> <CAS>
000108-98-5

> <ID Model>
171

> <HOMO>
-8.43

> <D_PathSumFRel>
0

> <G_ClBrI>
0

> <SeaC2C2aa>
11.15169

> <logkOH_EXP>
10.95

> <logkOH PRED>
10.33

> <Hat>
0.033

> <Hat Rif>
0.08

> <smiles>
SC1=CC=CC=C1

> <Mol Id>
171

$$$$
1-propylacetate
  SciTegic05311115012D

  7  6  0  0  0  0            999 V2000
    0.0000    0.0000    0.0000 C   0  0
    0.0000    0.0000    0.0000 C   0  0
    0.0000    0.0000    0.0000 C   0  0
    0.0000    0.0000    0.0000 O   0  0
    0.0000    0.0000    0.0000 C   0  0
    0.0000    0.0000    0.0000 C   0  0
    0.0000    0.0000    0.0000 O   0  0
  1  2  1  0
  2  3  1  0
  3  4  1  0
  4  5  1  0
  5  6  1  0
  5  7  2  0
M  END
> <Name>
1-propylacetate

> <CAS>
000109-60-4

> <ID Model>
172

> <HOMO>
-11.19

> <D_PathSumFRel>
0

> <G_ClBrI>
0

> <SeaC2C2aa>
0

> <logkOH_EXP>
11.46

> <logkOH PRED>
11.49

> <Hat>
0.013

> <Hat Rif>
0.08

> <smiles>
CCCOC(C)=O

> <Mol Id>
172

$$$$
1-pentene
  SciTegic05311115012D

  5  4  0  0  0  0            999 V2000
    0.0000    0.0000    0.0000 C   0  0
    0.0000    0.0000    0.0000 C   0  0
    0.0000    0.0000    0.0000 C   0  0
    0.0000    0.0000    0.0000 C   0  0
    0.0000    0.0000    0.0000 C   0  0
  1  2  1  0
  2  3  1  0
  3  4  1  0
  4  5  2  0
M  END
> <Name>
1-pentene

> <CAS>
000109-67-1

> <ID Model>
174

> <HOMO>
-9.99

> <D_PathSumFRel>
0

> <G_ClBrI>
0

> <SeaC2C2aa>
0

> <logkOH_EXP>
10.5

> <logkOH PRED>
10.68

> <Hat>
0.007

> <Hat Rif>
0.08

> <smiles>
CCCC=C

> <Mol Id>
174

$$$$
pyrrole
  SciTegic05311115012D

  5  5  0  0  0  0            999 V2000
    0.0000    0.0000    0.0000 C   0  0
    0.0000    0.0000    0.0000 C   0  0
    0.0000    0.0000    0.0000 C   0  0
    0.0000    0.0000    0.0000 N   0  0
    0.0000    0.0000    0.0000 C   0  0
  1  5  1  0
  1  2  1  0
  2  3  1  0
  3  4  1  0
  4  5  1  0
M  END
> <Name>
pyrrole

> <CAS>
000109-97-7

> <ID Model>
179

> <HOMO>
-8.66

> <D_PathSumFRel>
0

> <G_ClBrI>
0

> <SeaC2C2aa>
0

> <logkOH_EXP>
10

> <logkOH PRED>
9.79

> <Hat>
0.026

> <Hat Rif>
0.08

> <smiles>
C1CCNC1

> <Mol Id>
179

$$$$
isobutyl acetate
  SciTegic05311115012D

  8  7  0  0  0  0            999 V2000
    0.0000    0.0000    0.0000 C   0  0
    0.0000    0.0000    0.0000 C   0  0
    0.0000    0.0000    0.0000 C   0  0
    0.0000    0.0000    0.0000 C   0  0
    0.0000    0.0000    0.0000 O   0  0
    0.0000    0.0000    0.0000 C   0  0
    0.0000    0.0000    0.0000 C   0  0
    0.0000    0.0000    0.0000 O   0  0
  1  2  1  0
  2  3  1  0
  2  4  1  0
  4  5  1  0
  5  6  1  0
  6  7  1  0
  6  8  2  0
M  END
> <Name>
isobutyl acetate

> <CAS>
000110-19-0

> <ID Model>
185

> <HOMO>
-11.23

> <D_PathSumFRel>
0

> <G_ClBrI>
0

> <SeaC2C2aa>
0

> <logkOH_EXP>
11.27

> <logkOH PRED>
11.52

> <Hat>
0.013

> <Hat Rif>
0.08

> <smiles>
CC(C)COC(C)=O

> <Mol Id>
185

$$$$
propyl formate
  SciTegic05311115012D

  6  5  0  0  0  0            999 V2000
    0.0000    0.0000    0.0000 C   0  0
    0.0000    0.0000    0.0000 C   0  0
    0.0000    0.0000    0.0000 C   0  0
    0.0000    0.0000    0.0000 O   0  0
    0.0000    0.0000    0.0000 C   0  0
    0.0000    0.0000    0.0000 O   0  0
  1  2  1  0
  2  3  1  0
  3  4  1  0
  4  5  1  0
  5  6  2  0
M  END
> <Name>
propyl formate

> <CAS>
000110-74-7

> <ID Model>
189

> <HOMO>
-11.22

> <D_PathSumFRel>
0

> <G_ClBrI>
0

> <SeaC2C2aa>
0

> <logkOH_EXP>
11.62

> <logkOH PRED>
11.51

> <Hat>
0.013

> <Hat Rif>
0.08

> <smiles>
CCCOC=O

> <Mol Id>
189

$$$$
2-ethoxyethanol
  SciTegic05311115012D

  6  5  0  0  0  0            999 V2000
    0.0000    0.0000    0.0000 C   0  0
    0.0000    0.0000    0.0000 C   0  0
    0.0000    0.0000    0.0000 O   0  0
    0.0000    0.0000    0.0000 C   0  0
    0.0000    0.0000    0.0000 C   0  0
    0.0000    0.0000    0.0000 O   0  0
  1  2  1  0
  2  3  1  0
  3  4  1  0
  4  5  1  0
  5  6  1  0
M  END
> <Name>
2-ethoxyethanol

> <CAS>
000110-80-5

> <ID Model>
190

> <HOMO>
-10.49

> <D_PathSumFRel>
0

> <G_ClBrI>
0

> <SeaC2C2aa>
0

> <logkOH_EXP>
10.92

> <logkOH PRED>
11.02

> <Hat>
0.007

> <Hat Rif>
0.08

> <smiles>
CCOCCO

> <Mol Id>
190

$$$$
cyclohexene
  SciTegic05311115012D

  6  6  0  0  0  0            999 V2000
    0.0000    0.0000    0.0000 C   0  0
    0.0000    0.0000    0.0000 C   0  0
    0.0000    0.0000    0.0000 C   0  0
    0.0000    0.0000    0.0000 C   0  0
    0.0000    0.0000    0.0000 C   0  0
    0.0000    0.0000    0.0000 C   0  0
  1  6  1  0
  1  2  1  0
  2  3  1  0
  3  4  1  0
  4  5  2  3
  5  6  1  0
M  END
> <Name>
cyclohexene

> <CAS>
000110-83-8

> <ID Model>
192

> <HOMO>
-9.49

> <D_PathSumFRel>
0

> <G_ClBrI>
0

> <SeaC2C2aa>
0

> <logkOH_EXP>
10.17

> <logkOH PRED>
10.35

> <Hat>
0.011

> <Hat Rif>
0.08

> <smiles>
C1CCC=CC1

> <Mol Id>
192

$$$$
dipropyl ether
  SciTegic05311115012D

  7  6  0  0  0  0            999 V2000
    0.0000    0.0000    0.0000 C   0  0
    0.0000    0.0000    0.0000 C   0  0
    0.0000    0.0000    0.0000 C   0  0
    0.0000    0.0000    0.0000 O   0  0
    0.0000    0.0000    0.0000 C   0  0
    0.0000    0.0000    0.0000 C   0  0
    0.0000    0.0000    0.0000 C   0  0
  1  2  1  0
  2  3  1  0
  3  4  1  0
  4  5  1  0
  5  6  1  0
  6  7  1  0
M  END
> <Name>
dipropyl ether

> <CAS>
000111-43-3

> <ID Model>
200

> <HOMO>
-10.39

> <D_PathSumFRel>
0

> <G_ClBrI>
0

> <SeaC2C2aa>
0

> <logkOH_EXP>
10.78

> <logkOH PRED>
10.95

> <Hat>
0.007

> <Hat Rif>
0.08

> <smiles>
CCCOCCC

> <Mol Id>
200

$$$$
n-octane
  SciTegic05311115012D

  8  7  0  0  0  0            999 V2000
    0.0000    0.0000    0.0000 C   0  0
    0.0000    0.0000    0.0000 C   0  0
    0.0000    0.0000    0.0000 C   0  0
    0.0000    0.0000    0.0000 C   0  0
    0.0000    0.0000    0.0000 C   0  0
    0.0000    0.0000    0.0000 C   0  0
    0.0000    0.0000    0.0000 C   0  0
    0.0000    0.0000    0.0000 C   0  0
  1  2  1  0
  2  3  1  0
  3  4  1  0
  4  5  1  0
  5  6  1  0
  6  7  1  0
  7  8  1  0
M  END
> <Name>
n-octane

> <CAS>
000111-65-9

> <ID Model>
203

> <HOMO>
-11.07

> <D_PathSumFRel>
0

> <G_ClBrI>
0

> <SeaC2C2aa>
0

> <logkOH_EXP>
11.05

> <logkOH PRED>
11.41

> <Hat>
0.011

> <Hat Rif>
0.08

> <smiles>
CCCCCCCC

> <Mol Id>
203

$$$$
2-butoxyethanol
  SciTegic05311115012D

  8  7  0  0  0  0            999 V2000
    0.0000    0.0000    0.0000 C   0  0
    0.0000    0.0000    0.0000 C   0  0
    0.0000    0.0000    0.0000 C   0  0
    0.0000    0.0000    0.0000 C   0  0
    0.0000    0.0000    0.0000 O   0  0
    0.0000    0.0000    0.0000 C   0  0
    0.0000    0.0000    0.0000 C   0  0
    0.0000    0.0000    0.0000 O   0  0
  1  2  1  0
  2  3  1  0
  3  4  1  0
  4  5  1  0
  5  6  1  0
  6  7  1  0
  7  8  1  0
M  END
> <Name>
2-butoxyethanol

> <CAS>
000111-76-2

> <ID Model>
205

> <HOMO>
-10.68

> <D_PathSumFRel>
0

> <G_ClBrI>
0

> <SeaC2C2aa>
0

> <logkOH_EXP>
10.85

> <logkOH PRED>
11.15

> <Hat>
0.008

> <Hat Rif>
0.08

> <smiles>
CCCCOCCO

> <Mol Id>
205

$$$$
n-nonane
  SciTegic05311115012D

  9  8  0  0  0  0            999 V2000
    0.0000    0.0000    0.0000 C   0  0
    0.0000    0.0000    0.0000 C   0  0
    0.0000    0.0000    0.0000 C   0  0
    0.0000    0.0000    0.0000 C   0  0
    0.0000    0.0000    0.0000 C   0  0
    0.0000    0.0000    0.0000 C   0  0
    0.0000    0.0000    0.0000 C   0  0
    0.0000    0.0000    0.0000 C   0  0
    0.0000    0.0000    0.0000 C   0  0
  1  2  1  0
  2  3  1  0
  3  4  1  0
  4  5  1  0
  5  6  1  0
  6  7  1  0
  7  8  1  0
  8  9  1  0
M  END
> <Name>
n-nonane

> <CAS>
000111-84-2

> <ID Model>
206

> <HOMO>
-11.06

> <D_PathSumFRel>
0

> <G_ClBrI>
0

> <SeaC2C2aa>
0

> <logkOH_EXP>
11.98

> <logkOH PRED>
11.4

> <Hat>
0.011

> <Hat Rif>
0.08

> <smiles>
CCCCCCCCC

> <Mol Id>
206

$$$$
n-dodecane
  SciTegic05311115012D

 12 11  0  0  0  0            999 V2000
    0.0000    0.0000    0.0000 C   0  0
    0.0000    0.0000    0.0000 C   0  0
    0.0000    0.0000    0.0000 C   0  0
    0.0000    0.0000    0.0000 C   0  0
    0.0000    0.0000    0.0000 C   0  0
    0.0000    0.0000    0.0000 C   0  0
    0.0000    0.0000    0.0000 C   0  0
    0.0000    0.0000    0.0000 C   0  0
    0.0000    0.0000    0.0000 C   0  0
    0.0000    0.0000    0.0000 C   0  0
    0.0000    0.0000    0.0000 C   0  0
    0.0000    0.0000    0.0000 C   0  0
  1  2  1  0
  2  3  1  0
  3  4  1  0
  4  5  1  0
  5  6  1  0
  6  7  1  0
  7  8  1  0
  8  9  1  0
  9 10  1  0
 10 11  1  0
 11 12  1  0
M  END
> <Name>
n-dodecane

> <CAS>
000112-40-3

> <ID Model>
209

> <HOMO>
-11.06

> <D_PathSumFRel>
0

> <G_ClBrI>
0

> <SeaC2C2aa>
0

> <logkOH_EXP>
10.86

> <logkOH PRED>
11.4

> <Hat>
0.011

> <Hat Rif>
0.08

> <smiles>
CCCCCCCCCCCC

> <Mol Id>
209

$$$$
dimethyl ether
  SciTegic05311115012D

  3  2  0  0  0  0            999 V2000
    0.0000    0.0000    0.0000 C   0  0
    0.0000    0.0000    0.0000 O   0  0
    0.0000    0.0000    0.0000 C   0  0
  1  2  1  0
  2  3  1  0
M  END
> <Name>
dimethyl ether

> <CAS>
000115-10-6

> <ID Model>
211

> <HOMO>
-10.61

> <D_PathSumFRel>
0

> <G_ClBrI>
0

> <SeaC2C2aa>
0

> <logkOH_EXP>
11.46

> <logkOH PRED>
11.1

> <Hat>
0.008

> <Hat Rif>
0.08

> <smiles>
COC

> <Mol Id>
211

$$$$
hydroxyacetone
  SciTegic05311115012D

  5  4  0  0  0  0            999 V2000
    0.0000    0.0000    0.0000 C   0  0
    0.0000    0.0000    0.0000 C   0  0
    0.0000    0.0000    0.0000 O   0  0
    0.0000    0.0000    0.0000 C   0  0
    0.0000    0.0000    0.0000 O   0  0
  1  2  1  0
  2  3  2  0
  2  4  1  0
  4  5  1  0
M  END
> <Name>
hydroxyacetone

> <CAS>
000116-09-6

> <ID Model>
213

> <HOMO>
-10.69

> <D_PathSumFRel>
0

> <G_ClBrI>
0

> <SeaC2C2aa>
0

> <logkOH_EXP>
11.52

> <logkOH PRED>
11.15

> <Hat>
0.008

> <Hat Rif>
0.08

> <smiles>
CC(=O)CO

> <Mol Id>
213

$$$$
tetralin
  SciTegic05311115012D

 10 11  0  0  0  0            999 V2000
    0.0000    0.0000    0.0000 C   0  0
    0.0000    0.0000    0.0000 C   0  0
    0.0000    0.0000    0.0000 C   0  0
    0.0000    0.0000    0.0000 C   0  0
    0.0000    0.0000    0.0000 C   0  0
    0.0000    0.0000    0.0000 C   0  0
    0.0000    0.0000    0.0000 C   0  0
    0.0000    0.0000    0.0000 C   0  0
    0.0000    0.0000    0.0000 C   0  0
    0.0000    0.0000    0.0000 C   0  0
  1  6  1  0
  1  2  1  0
  2  3  1  0
  3  4  1  0
  4 10  1  0
  4  5  2  3
  5  6  1  0
  5  7  1  0
  7  8  2  3
  8  9  1  0
  9 10  2  3
M  END
> <Name>
tetralin

> <CAS>
000119-64-2

> <ID Model>
214

> <HOMO>
-9.14

> <D_PathSumFRel>
0

> <G_ClBrI>
0

> <SeaC2C2aa>
9.904377

> <logkOH_EXP>
10.47

> <logkOH PRED>
10.73

> <Hat>
0.024

> <Hat Rif>
0.08

> <smiles>
C1CCC2=C(C1)C=CC=C2

> <Mol Id>
214

$$$$
anthracene
  SciTegic05311115012D

 14 16  0  0  0  0            999 V2000
    0.0000    0.0000    0.0000 C   0  0
    0.0000    0.0000    0.0000 C   0  0
    0.0000    0.0000    0.0000 C   0  0
    0.0000    0.0000    0.0000 C   0  0
    0.0000    0.0000    0.0000 C   0  0
    0.0000    0.0000    0.0000 C   0  0
    0.0000    0.0000    0.0000 C   0  0
    0.0000    0.0000    0.0000 C   0  0
    0.0000    0.0000    0.0000 C   0  0
    0.0000    0.0000    0.0000 C   0  0
    0.0000    0.0000    0.0000 C   0  0
    0.0000    0.0000    0.0000 C   0  0
    0.0000    0.0000    0.0000 C   0  0
    0.0000    0.0000    0.0000 C   0  0
  1 14  1  0
  1  2  2  3
  2  3  1  0
  3 12  1  0
  3  4  2  3
  4  5  1  0
  5 10  1  0
  5  6  2  3
  6  7  1  0
  6 11  1  0
  7  8  2  3
  8  9  1  0
  9 10  2  3
 11 12  2  3
 12 13  1  0
 13 14  2  3
M  END
> <Name>
anthracene

> <CAS>
000120-12-7

> <ID Model>
215

> <HOMO>
-8.12

> <D_PathSumFRel>
0

> <G_ClBrI>
0

> <SeaC2C2aa>
18.07911

> <logkOH_EXP>
10.1

> <logkOH PRED>
10.55

> <Hat>
0.078

> <Hat Rif>
0.08

> <smiles>
C1=CC2=CC3=C(C=CC=C3)C=C2C=C1

> <Mol Id>
215

$$$$
2,4-dichlorophenol
  SciTegic05311115012D

  9  9  0  0  0  0            999 V2000
    0.0000    0.0000    0.0000 O   0  0
    0.0000    0.0000    0.0000 C   0  0
    0.0000    0.0000    0.0000 C   0  0
    0.0000    0.0000    0.0000 C   0  0
    0.0000    0.0000    0.0000 C   0  0
    0.0000    0.0000    0.0000 Cl  0  0
    0.0000    0.0000    0.0000 C   0  0
    0.0000    0.0000    0.0000 C   0  0
    0.0000    0.0000    0.0000 Cl  0  0
  1  2  1  0
  2  8  1  0
  2  3  2  3
  3  4  1  0
  4  5  2  3
  5  6  1  0
  5  7  1  0
  7  8  2  3
  8  9  1  0
M  END
> <Name>
2,4-dichlorophenol

> <CAS>
000120-83-2

> <ID Model>
217

> <HOMO>
-9.23

> <D_PathSumFRel>
0

> <G_ClBrI>
2

> <SeaC2C2aa>
2.29447

> <logkOH_EXP>
11.98

> <logkOH PRED>
11.13

> <Hat>
0.06

> <Hat Rif>
0.08

> <smiles>
OC1=CC=C(Cl)C=C1Cl

> <Mol Id>
217

$$$$
myrcene
  SciTegic05311115012D

 10  9  0  0  0  0            999 V2000
    0.0000    0.0000    0.0000 C   0  0
    0.0000    0.0000    0.0000 C   0  0
    0.0000    0.0000    0.0000 C   0  0
    0.0000    0.0000    0.0000 C   0  0
    0.0000    0.0000    0.0000 C   0  0
    0.0000    0.0000    0.0000 C   0  0
    0.0000    0.0000    0.0000 C   0  0
    0.0000    0.0000    0.0000 C   0  0
    0.0000    0.0000    0.0000 C   0  0
    0.0000    0.0000    0.0000 C   0  0
  1  2  1  0
  2  3  1  0
  2  4  2  3
  4  5  1  0
  5  6  1  0
  6  7  1  0
  7  8  2  0
  7  9  1  0
  9 10  2  0
M  END
> <Name>
myrcene

> <CAS>
000123-35-3

> <ID Model>
221

> <HOMO>
-9.23

> <D_PathSumFRel>
0

> <G_ClBrI>
0

> <SeaC2C2aa>
0

> <logkOH_EXP>
9.67

> <logkOH PRED>
10.17

> <Hat>
0.015

> <Hat Rif>
0.08

> <smiles>
C\C(C)=C\CCC(=C)C=C

> <Mol Id>
221

$$$$
2,4-pentenedione
  SciTegic05311115012D

  7  6  0  0  0  0            999 V2000
    0.0000    0.0000    0.0000 C   0  0
    0.0000    0.0000    0.0000 C   0  0
    0.0000    0.0000    0.0000 O   0  0
    0.0000    0.0000    0.0000 C   0  0
    0.0000    0.0000    0.0000 C   0  0
    0.0000    0.0000    0.0000 C   0  0
    0.0000    0.0000    0.0000 O   0  0
  1  2  1  0
  2  3  2  0
  2  4  1  0
  4  5  1  0
  5  6  1  0
  5  7  2  0
M  END
> <Name>
2,4-pentenedione

> <CAS>
000123-54-6

> <ID Model>
223

> <HOMO>
-10.77

> <D_PathSumFRel>
0

> <G_ClBrI>
0

> <SeaC2C2aa>
0

> <logkOH_EXP>
11.94

> <logkOH PRED>
11.21

> <Hat>
0.009

> <Hat Rif>
0.08

> <smiles>
CC(=O)CC(C)=O

> <Mol Id>
223

$$$$
butanal
  SciTegic05311115012D

  5  4  0  0  0  0            999 V2000
    0.0000    0.0000    0.0000 C   0  0
    0.0000    0.0000    0.0000 C   0  0
    0.0000    0.0000    0.0000 C   0  0
    0.0000    0.0000    0.0000 C   0  0
    0.0000    0.0000    0.0000 O   0  0
  1  2  1  0
  2  3  1  0
  3  4  1  0
  4  5  2  0
M  END
> <Name>
butanal

> <CAS>
000123-72-8

> <ID Model>
224

> <HOMO>
-10.59

> <D_PathSumFRel>
0

> <G_ClBrI>
0

> <SeaC2C2aa>
0

> <logkOH_EXP>
10.6

> <logkOH PRED>
11.09

> <Hat>
0.008

> <Hat Rif>
0.08

> <smiles>
CCCC=O

> <Mol Id>
224

$$$$
1,4-dioxane
  SciTegic05311115012D

  6  6  0  0  0  0            999 V2000
    0.0000    0.0000    0.0000 C   0  0
    0.0000    0.0000    0.0000 C   0  0
    0.0000    0.0000    0.0000 O   0  0
    0.0000    0.0000    0.0000 C   0  0
    0.0000    0.0000    0.0000 C   0  0
    0.0000    0.0000    0.0000 O   0  0
  1  6  1  0
  1  2  1  0
  2  3  1  0
  3  4  1  0
  4  5  1  0
  5  6  1  0
M  END
> <Name>
1,4-dioxane

> <CAS>
000123-91-1

> <ID Model>
227

> <HOMO>
-10.21

> <D_PathSumFRel>
0

> <G_ClBrI>
0

> <SeaC2C2aa>
0

> <logkOH_EXP>
10.96

> <logkOH PRED>
10.83

> <Hat>
0.007

> <Hat Rif>
0.08

> <smiles>
C1COCCO1

> <Mol Id>
227

$$$$
n-decane
  SciTegic05311115012D

 10  9  0  0  0  0            999 V2000
    0.0000    0.0000    0.0000 C   0  0
    0.0000    0.0000    0.0000 C   0  0
    0.0000    0.0000    0.0000 C   0  0
    0.0000    0.0000    0.0000 C   0  0
    0.0000    0.0000    0.0000 C   0  0
    0.0000    0.0000    0.0000 C   0  0
    0.0000    0.0000    0.0000 C   0  0
    0.0000    0.0000    0.0000 C   0  0
    0.0000    0.0000    0.0000 C   0  0
    0.0000    0.0000    0.0000 C   0  0
  1  2  1  0
  2  3  1  0
  3  4  1  0
  4  5  1  0
  5  6  1  0
  6  7  1  0
  7  8  1  0
  8  9  1  0
  9 10  1  0
M  END
> <Name>
n-decane

> <CAS>
000124-18-5

> <ID Model>
228

> <HOMO>
-11.06

> <D_PathSumFRel>
0

> <G_ClBrI>
0

> <SeaC2C2aa>
0

> <logkOH_EXP>
11.95

> <logkOH PRED>
11.4

> <Hat>
0.011

> <Hat Rif>
0.08

> <smiles>
CCCCCCCCCC

> <Mol Id>
228

$$$$
dimethyl-amine
  SciTegic05311115012D

  3  2  0  0  0  0            999 V2000
    0.0000    0.0000    0.0000 C   0  0
    0.0000    0.0000    0.0000 N   0  0
    0.0000    0.0000    0.0000 C   0  0
  1  2  1  0
  2  3  1  0
M  END
> <Name>
dimethyl-amine

> <CAS>
000124-40-3

> <ID Model>
229

> <HOMO>
-9.39

> <D_PathSumFRel>
0

> <G_ClBrI>
0

> <SeaC2C2aa>
0

> <logkOH_EXP>
10.18

> <logkOH PRED>
10.28

> <Hat>
0.013

> <Hat Rif>
0.08

> <smiles>
CNC

> <Mol Id>
229

$$$$
2-amino-2-methyl-1-propanol
  SciTegic05311115012D

  6  5  0  0  0  0            999 V2000
    0.0000    0.0000    0.0000 C   0  0
    0.0000    0.0000    0.0000 C   0  0
    0.0000    0.0000    0.0000 C   0  0
    0.0000    0.0000    0.0000 N   0  0
    0.0000    0.0000    0.0000 C   0  0
    0.0000    0.0000    0.0000 O   0  0
  1  2  1  0
  2  3  1  0
  2  4  1  0
  2  5  1  0
  5  6  1  0
M  END
> <Name>
2-amino-2-methyl-1-propanol

> <CAS>
000124-68-5

> <ID Model>
230

> <HOMO>
-9.79

> <D_PathSumFRel>
0

> <G_ClBrI>
0

> <SeaC2C2aa>
0

> <logkOH_EXP>
10.55

> <logkOH PRED>
10.55

> <Hat>
0.009

> <Hat Rif>
0.08

> <smiles>
CC(C)(N)CO

> <Mol Id>
230

$$$$
2,2-diethoxypropane
  SciTegic05311115012D

  9  8  0  0  0  0            999 V2000
    0.0000    0.0000    0.0000 C   0  0
    0.0000    0.0000    0.0000 C   0  0
    0.0000    0.0000    0.0000 O   0  0
    0.0000    0.0000    0.0000 C   0  0
    0.0000    0.0000    0.0000 C   0  0
    0.0000    0.0000    0.0000 C   0  0
    0.0000    0.0000    0.0000 O   0  0
    0.0000    0.0000    0.0000 C   0  0
    0.0000    0.0000    0.0000 C   0  0
  1  2  1  0
  2  3  1  0
  3  4  1  0
  4  5  1  0
  4  6  1  0
  4  7  1  0
  7  8  1  0
  8  9  1  0
M  END
> <Name>
2,2-diethoxypropane

> <CAS>
000126-84-1

> <ID Model>
231

> <HOMO>
-10.17

> <D_PathSumFRel>
0

> <G_ClBrI>
0

> <SeaC2C2aa>
0

> <logkOH_EXP>
10.93

> <logkOH PRED>
10.8

> <Hat>
0.007

> <Hat Rif>
0.08

> <smiles>
CCOC(C)(C)OCC

> <Mol Id>
231

$$$$
b- pinene
  SciTegic05311115012D

 12 13  0  0  0  0            999 V2000
    0.0000    0.0000    0.0000 C   0  0
    0.0000    0.0000    0.0000 C   0  0
    0.0000    0.0000    0.0000 C   0  0
    0.0000    0.0000    0.0000 C   0  0
    0.0000    0.0000    0.0000 H   0  0
    0.0000    0.0000    0.0000 C   0  0
    0.0000    0.0000    0.0000 C   0  0
    0.0000    0.0000    0.0000 H   0  0
    0.0000    0.0000    0.0000 C   0  0
    0.0000    0.0000    0.0000 C   0  0
    0.0000    0.0000    0.0000 C   0  0
    0.0000    0.0000    0.0000 C   0  0
  1  2  1  0
  2  7  1  0
  2  3  1  0
  2  4  1  0
  4  5  1  0
  4 12  1  0
  4  6  1  0
  6  7  1  0
  7  8  1  0
  7  9  1  0
  9 10  2  0
  9 11  1  0
 11 12  1  0
M  END
> <Name>
b- pinene

> <CAS>
000127-91-3

> <ID Model>
233

> <HOMO>
-9.53

> <D_PathSumFRel>
0

> <G_ClBrI>
0

> <SeaC2C2aa>
0

> <logkOH_EXP>
10.1

> <logkOH PRED>
10.37

> <Hat>
0.011

> <Hat Rif>
0.08

> <smiles>
CC1(C)[C@@H]2C[C@H]1C(=C)CC2

> <Mol Id>
233

$$$$
1,4-naphthoquinone
  SciTegic05311115012D

 12 13  0  0  0  0            999 V2000
    0.0000    0.0000    0.0000 O   0  0
    0.0000    0.0000    0.0000 C   0  0
    0.0000    0.0000    0.0000 C   0  0
    0.0000    0.0000    0.0000 C   0  0
    0.0000    0.0000    0.0000 C   0  0
    0.0000    0.0000    0.0000 O   0  0
    0.0000    0.0000    0.0000 C   0  0
    0.0000    0.0000    0.0000 C   0  0
    0.0000    0.0000    0.0000 C   0  0
    0.0000    0.0000    0.0000 C   0  0
    0.0000    0.0000    0.0000 C   0  0
    0.0000    0.0000    0.0000 C   0  0
  1  2  1  0
  2  8  1  0
  2  3  2  3
  3  4  1  0
  4  5  2  3
  5  6  1  0
  5  7  1  0
  7 12  1  0
  7  8  2  3
  8  9  1  0
  9 10  2  3
 10 11  1  0
 11 12  2  3
M  END
> <Name>
1,4-naphthoquinone

> <CAS>
000130-15-4

> <ID Model>
234

> <HOMO>
-10.26

> <D_PathSumFRel>
0

> <G_ClBrI>
0

> <SeaC2C2aa>
10.30932

> <logkOH_EXP>
11.51

> <logkOH PRED>
11.51

> <Hat>
0.034

> <Hat Rif>
0.08

> <smiles>
OC1=CC=C(O)C2=C1C=CC=C2

> <Mol Id>
234

$$$$
ethyl acetate
  SciTegic05311115012D

  6  5  0  0  0  0            999 V2000
    0.0000    0.0000    0.0000 C   0  0
    0.0000    0.0000    0.0000 C   0  0
    0.0000    0.0000    0.0000 O   0  0
    0.0000    0.0000    0.0000 C   0  0
    0.0000    0.0000    0.0000 C   0  0
    0.0000    0.0000    0.0000 O   0  0
  1  2  1  0
  2  3  1  0
  3  4  1  0
  4  5  1  0
  4  6  2  0
M  END
> <Name>
ethyl acetate

> <CAS>
000141-78-6

> <ID Model>
237

> <HOMO>
-11.25

> <D_PathSumFRel>
0

> <G_ClBrI>
0

> <SeaC2C2aa>
0

> <logkOH_EXP>
11.77

> <logkOH PRED>
11.53

> <Hat>
0.014

> <Hat Rif>
0.08

> <smiles>
CCOC(C)=O

> <Mol Id>
237

$$$$
cyclopentene
  SciTegic05311115012D

  5  5  0  0  0  0            999 V2000
    0.0000    0.0000    0.0000 C   0  0
    0.0000    0.0000    0.0000 C   0  0
    0.0000    0.0000    0.0000 C   0  0
    0.0000    0.0000    0.0000 C   0  0
    0.0000    0.0000    0.0000 C   0  0
  1  5  1  0
  1  2  1  0
  2  3  1  0
  3  4  2  3
  4  5  1  0
M  END
> <Name>
cyclopentene

> <CAS>
000142-29-0

> <ID Model>
239

> <HOMO>
-9.44

> <D_PathSumFRel>
0

> <G_ClBrI>
0

> <SeaC2C2aa>
0

> <logkOH_EXP>
10.17

> <logkOH PRED>
10.31

> <Hat>
0.012

> <Hat Rif>
0.08

> <smiles>
C1CC=CC1

> <Mol Id>
239

$$$$
aziridine
  SciTegic05311115012D

  3  3  0  0  0  0            999 V2000
    0.0000    0.0000    0.0000 C   0  0
    0.0000    0.0000    0.0000 C   0  0
    0.0000    0.0000    0.0000 N   0  0
  1  3  1  0
  1  2  1  0
  2  3  1  0
M  END
> <Name>
aziridine

> <CAS>
000151-56-4

> <ID Model>
243

> <HOMO>
-10.31

> <D_PathSumFRel>
0

> <G_ClBrI>
0

> <SeaC2C2aa>
0

> <logkOH_EXP>
11.22

> <logkOH PRED>
10.9

> <Hat>
0.007

> <Hat Rif>
0.08

> <smiles>
C1CN1

> <Mol Id>
243

$$$$
O,O,S-trimethyl phosphorothioate
  SciTegic05311115012D

  8  7  0  0  0  0            999 V2000
    0.0000    0.0000    0.0000 C   0  0
    0.0000    0.0000    0.0000 O   0  0
    0.0000    0.0000    0.0000 P   0  0
    0.0000    0.0000    0.0000 O   0  0
    0.0000    0.0000    0.0000 O   0  0
    0.0000    0.0000    0.0000 C   0  0
    0.0000    0.0000    0.0000 S   0  0
    0.0000    0.0000    0.0000 C   0  0
  1  2  1  0
  2  3  1  0
  3  4  2  0
  3  5  1  0
  3  7  1  0
  5  6  1  0
  7  8  1  0
M  END
> <Name>
O,O,S-trimethyl phosphorothioate

> <CAS>
000152-20-5

> <ID Model>
245

> <HOMO>
-9.84

> <D_PathSumFRel>
0

> <G_ClBrI>
0

> <SeaC2C2aa>
0

> <logkOH_EXP>
11.03

> <logkOH PRED>
10.58

> <Hat>
0.008

> <Hat Rif>
0.08

> <smiles>
COP(=O)(OC)SC

> <Mol Id>
245

$$$$
cis-1,2-dichloroethene
  SciTegic05311115012D

  4  3  0  0  0  0            999 V2000
    0.0000    0.0000    0.0000 Cl  0  0
    0.0000    0.0000    0.0000 C   0  0
    0.0000    0.0000    0.0000 C   0  0
    0.0000    0.0000    0.0000 Cl  0  0
  1  2  1  0
  2  3  2  3
  3  4  1  0
M  END
> <Name>
cis-1,2-dichloroethene

> <CAS>
000156-59-2

> <ID Model>
246

> <HOMO>
-9.97

> <D_PathSumFRel>
0

> <G_ClBrI>
2

> <SeaC2C2aa>
0

> <logkOH_EXP>
11.62

> <logkOH PRED>
11.49

> <Hat>
0.054

> <Hat Rif>
0.08

> <smiles>
Cl\C=C/Cl

> <Mol Id>
246

$$$$
2,3-benzofuran
  SciTegic05311115012D

  9 10  0  0  0  0            999 V2000
    0.0000    0.0000    0.0000 O   0  0
    0.0000    0.0000    0.0000 C   0  0
    0.0000    0.0000    0.0000 C   0  0
    0.0000    0.0000    0.0000 C   0  0
    0.0000    0.0000    0.0000 C   0  0
    0.0000    0.0000    0.0000 C   0  0
    0.0000    0.0000    0.0000 C   0  0
    0.0000    0.0000    0.0000 C   0  0
    0.0000    0.0000    0.0000 C   0  0
  1  5  1  0
  1  2  1  0
  2  3  2  3
  3  4  1  0
  4  9  1  0
  4  5  2  3
  5  6  1  0
  6  7  2  3
  7  8  1  0
  8  9  2  3
M  END
> <Name>
2,3-benzofuran

> <CAS>
000271-89-6

> <ID Model>
249

> <HOMO>
-9.01

> <D_PathSumFRel>
0

> <G_ClBrI>
0

> <SeaC2C2aa>
10.89651

> <logkOH_EXP>
10.43

> <logkOH PRED>
10.7

> <Hat>
0.029

> <Hat Rif>
0.08

> <smiles>
O1C=CC2=C1C=CC=C2

> <Mol Id>
249

$$$$
bicyclo(2,2,1)heptane
  SciTegic05311115012D

  9 10  0  0  0  0            999 V2000
    0.0000    0.0000    0.0000 C   0  0
    0.0000    0.0000    0.0000 C   0  0
    0.0000    0.0000    0.0000 C   0  0
    0.0000    0.0000    0.0000 H   0  0
    0.0000    0.0000    0.0000 C   0  0
    0.0000    0.0000    0.0000 C   0  0
    0.0000    0.0000    0.0000 C   0  0
    0.0000    0.0000    0.0000 H   0  0
    0.0000    0.0000    0.0000 C   0  0
  1  7  1  0
  1  2  1  0
  2  3  1  0
  3  4  1  0
  3  9  1  0
  3  5  1  0
  5  6  1  0
  6  7  1  0
  7  8  1  0
  7  9  1  0
M  END
> <Name>
bicyclo(2,2,1)heptane

> <CAS>
000279-23-2

> <ID Model>
250

> <HOMO>
-10.75

> <D_PathSumFRel>
0

> <G_ClBrI>
0

> <SeaC2C2aa>
0

> <logkOH_EXP>
11.26

> <logkOH PRED>
11.2

> <Hat>
0.008

> <Hat Rif>
0.08

> <smiles>
C1C[C@H]2CC[C@@H]1C2

> <Mol Id>
250

$$$$
bicyclo(2,2,2)octane
  SciTegic05311115012D

 10 11  0  0  0  0            999 V2000
    0.0000    0.0000    0.0000 C   0  0
    0.0000    0.0000    0.0000 C   0  0
    0.0000    0.0000    0.0000 C   0  0
    0.0000    0.0000    0.0000 H   0  0
    0.0000    0.0000    0.0000 C   0  0
    0.0000    0.0000    0.0000 C   0  0
    0.0000    0.0000    0.0000 C   0  0
    0.0000    0.0000    0.0000 H   0  0
    0.0000    0.0000    0.0000 C   0  0
    0.0000    0.0000    0.0000 C   0  0
  1  7  1  0
  1  2  1  0
  2  3  1  0
  3  4  1  0
  3 10  1  0
  3  5  1  0
  5  6  1  0
  6  7  1  0
  7  8  1  0
  7  9  1  0
  9 10  1  0
M  END
> <Name>
bicyclo(2,2,2)octane

> <CAS>
000280-33-1

> <ID Model>
251

> <HOMO>
-10.56

> <D_PathSumFRel>
0

> <G_ClBrI>
0

> <SeaC2C2aa>
0

> <logkOH_EXP>
10.83

> <logkOH PRED>
11.07

> <Hat>
0.007

> <Hat Rif>
0.08

> <smiles>
C1C[C@@H]2CC[C@H]1CC2

> <Mol Id>
251

$$$$
cyclopentane
  SciTegic05311115012D

  5  5  0  0  0  0            999 V2000
    0.0000    0.0000    0.0000 C   0  0
    0.0000    0.0000    0.0000 C   0  0
    0.0000    0.0000    0.0000 C   0  0
    0.0000    0.0000    0.0000 C   0  0
    0.0000    0.0000    0.0000 C   0  0
  1  5  1  0
  1  2  1  0
  2  3  1  0
  3  4  1  0
  4  5  1  0
M  END
> <Name>
cyclopentane

> <CAS>
000287-92-3

> <ID Model>
254

> <HOMO>
-10.97

> <D_PathSumFRel>
0

> <G_ClBrI>
0

> <SeaC2C2aa>
0

> <logkOH_EXP>
11.28

> <logkOH PRED>
11.34

> <Hat>
0.01

> <Hat Rif>
0.08

> <smiles>
C1CCCC1

> <Mol Id>
254

$$$$
imidazole
  SciTegic05311115012D

  5  5  0  0  0  0            999 V2000
    0.0000    0.0000    0.0000 C   0  0
    0.0000    0.0000    0.0000 C   0  0
    0.0000    0.0000    0.0000 N   0  0
    0.0000    0.0000    0.0000 C   0  0
    0.0000    0.0000    0.0000 N   0  0
  1  5  1  0
  1  2  1  0
  2  3  1  0
  3  4  1  0
  4  5  1  0
M  END
> <Name>
imidazole

> <CAS>
000288-32-4

> <ID Model>
255

> <HOMO>
-9.16

> <D_PathSumFRel>
0

> <G_ClBrI>
0

> <SeaC2C2aa>
0

> <logkOH_EXP>
10.45

> <logkOH PRED>
10.12

> <Hat>
0.016

> <Hat Rif>
0.08

> <smiles>
C1CNCN1

> <Mol Id>
255

$$$$
cycloheptane
  SciTegic05311115012D

  7  7  0  0  0  0            999 V2000
    0.0000    0.0000    0.0000 C   0  0
    0.0000    0.0000    0.0000 C   0  0
    0.0000    0.0000    0.0000 C   0  0
    0.0000    0.0000    0.0000 C   0  0
    0.0000    0.0000    0.0000 C   0  0
    0.0000    0.0000    0.0000 C   0  0
    0.0000    0.0000    0.0000 C   0  0
  1  7  1  0
  1  2  1  0
  2  3  1  0
  3  4  1  0
  4  5  1  0
  5  6  1  0
  6  7  1  0
M  END
> <Name>
cycloheptane

> <CAS>
000291-64-5

> <ID Model>
259

> <HOMO>
-10.76

> <D_PathSumFRel>
0

> <G_ClBrI>
0

> <SeaC2C2aa>
0

> <logkOH_EXP>
10.93

> <logkOH PRED>
11.2

> <Hat>
0.009

> <Hat Rif>
0.08

> <smiles>
C1CCCCCC1

> <Mol Id>
259

$$$$
hexafluorobenzene
  SciTegic05311115012D

 12 12  0  0  0  0            999 V2000
    0.0000    0.0000    0.0000 F   0  0
    0.0000    0.0000    0.0000 C   0  0
    0.0000    0.0000    0.0000 C   0  0
    0.0000    0.0000    0.0000 F   0  0
    0.0000    0.0000    0.0000 C   0  0
    0.0000    0.0000    0.0000 F   0  0
    0.0000    0.0000    0.0000 C   0  0
    0.0000    0.0000    0.0000 F   0  0
    0.0000    0.0000    0.0000 C   0  0
    0.0000    0.0000    0.0000 F   0  0
    0.0000    0.0000    0.0000 C   0  0
    0.0000    0.0000    0.0000 F   0  0
  1  2  1  0
  2 11  1  0
  2  3  2  3
  3  4  1  0
  3  5  1  0
  5  6  1  0
  5  7  2  3
  7  8  1  0
  7  9  1  0
  9 10  1  0
  9 11  2  3
 11 12  1  0
M  END
> <Name>
hexafluorobenzene

> <CAS>
000392-56-3

> <ID Model>
267

> <HOMO>
-10.37

> <D_PathSumFRel>
1.172414

> <G_ClBrI>
0

> <SeaC2C2aa>
0

> <logkOH_EXP>
12.79

> <logkOH PRED>
12.6

> <Hat>
0.137*

> <Hat Rif>
0.08

> <smiles>
FC1=C(F)C(F)=C(F)C(F)=C1F

> <Mol Id>
267

$$$$
methyl trifluoroacetate
  SciTegic05311115012D

  8  7  0  0  0  0            999 V2000
    0.0000    0.0000    0.0000 C   0  0
    0.0000    0.0000    0.0000 O   0  0
    0.0000    0.0000    0.0000 C   0  0
    0.0000    0.0000    0.0000 O   0  0
    0.0000    0.0000    0.0000 C   0  0
    0.0000    0.0000    0.0000 F   0  0
    0.0000    0.0000    0.0000 F   0  0
    0.0000    0.0000    0.0000 F   0  0
  1  2  1  0
  2  3  1  0
  3  4  2  0
  3  5  1  0
  5  6  1  0
  5  7  1  0
  5  8  1  0
M  END
> <Name>
methyl trifluoroacetate

> <CAS>
000431-47-0

> <ID Model>
270

> <HOMO>
-12.18

> <D_PathSumFRel>
0.8095238

> <G_ClBrI>
0

> <SeaC2C2aa>
0

> <logkOH_EXP>
13.28

> <logkOH PRED>
13.31

> <Hat>
0.062

> <Hat Rif>
0.08

> <smiles>
COC(=O)C(F)(F)F

> <Mol Id>
270

$$$$
1,3-butadiyne
  SciTegic05311115012D

  4  3  0  0  0  0            999 V2000
    0.0000    0.0000    0.0000 C   0  0
    0.0000    0.0000    0.0000 C   0  0
    0.0000    0.0000    0.0000 C   0  0
    0.0000    0.0000    0.0000 C   0  0
  1  2  3  0
  2  3  1  0
  3  4  3  0
M  END
> <Name>
1,3-butadiyne

> <CAS>
000460-12-8

> <ID Model>
271

> <HOMO>
-10.37

> <D_PathSumFRel>
0

> <G_ClBrI>
0

> <SeaC2C2aa>
0

> <logkOH_EXP>
10.8

> <logkOH PRED>
10.94

> <Hat>
0.007

> <Hat Rif>
0.08

> <smiles>
C#CC#C

> <Mol Id>
271

$$$$
cis-bicyclo(4,4,0)-decane
  SciTegic05311115012D

 12 13  0  0  0  0            999 V2000
    0.0000    0.0000    0.0000 C   0  0
    0.0000    0.0000    0.0000 C   0  0
    0.0000    0.0000    0.0000 C   0  0
    0.0000    0.0000    0.0000 C   0  0
    0.0000    0.0000    0.0000 H   0  0
    0.0000    0.0000    0.0000 C   0  0
    0.0000    0.0000    0.0000 C   0  0
    0.0000    0.0000    0.0000 C   0  0
    0.0000    0.0000    0.0000 C   0  0
    0.0000    0.0000    0.0000 C   0  0
    0.0000    0.0000    0.0000 H   0  0
    0.0000    0.0000    0.0000 C   0  0
  1 12  1  0
  1  2  1  0
  2  3  1  0
  3  4  1  0
  4  5  1  0
  4 10  1  0
  4  6  1  0
  6  7  1  0
  7  8  1  0
  8  9  1  0
  9 10  1  0
 10 11  1  0
 10 12  1  0
M  END
> <Name>
cis-bicyclo(4,4,0)-decane

> <CAS>
000493-01-6

> <ID Model>
279

> <HOMO>
-10.42

> <D_PathSumFRel>
0

> <G_ClBrI>
0

> <SeaC2C2aa>
0

> <logkOH_EXP>
10.7

> <logkOH PRED>
10.97

> <Hat>
0.007

> <Hat Rif>
0.08

> <smiles>
C1CC[C@H]2CCCC[C@H]2C1

> <Mol Id>
279

$$$$
indane
  SciTegic05311115012D

  9 10  0  0  0  0            999 V2000
    0.0000    0.0000    0.0000 C   0  0
    0.0000    0.0000    0.0000 C   0  0
    0.0000    0.0000    0.0000 C   0  0
    0.0000    0.0000    0.0000 C   0  0
    0.0000    0.0000    0.0000 C   0  0
    0.0000    0.0000    0.0000 C   0  0
    0.0000    0.0000    0.0000 C   0  0
    0.0000    0.0000    0.0000 C   0  0
    0.0000    0.0000    0.0000 C   0  0
  1  5  1  0
  1  2  1  0
  2  3  1  0
  3  9  1  0
  3  4  2  3
  4  5  1  0
  4  6  1  0
  6  7  2  3
  7  8  1  0
  8  9  2  3
M  END
> <Name>
indane

> <CAS>
000496-11-7

> <ID Model>
282

> <HOMO>
-9.11

> <D_PathSumFRel>
0

> <G_ClBrI>
0

> <SeaC2C2aa>
9.666419

> <logkOH_EXP>
11.04

> <logkOH PRED>
10.69

> <Hat>
0.023

> <Hat Rif>
0.08

> <smiles>
C1CC2=C(C1)C=CC=C2

> <Mol Id>
282

$$$$
2,3-dihydrobenzofuran
  SciTegic05311115012D

  9 10  0  0  0  0            999 V2000
    0.0000    0.0000    0.0000 C   0  0
    0.0000    0.0000    0.0000 C   0  0
    0.0000    0.0000    0.0000 C   0  0
    0.0000    0.0000    0.0000 C   0  0
    0.0000    0.0000    0.0000 O   0  0
    0.0000    0.0000    0.0000 C   0  0
    0.0000    0.0000    0.0000 C   0  0
    0.0000    0.0000    0.0000 C   0  0
    0.0000    0.0000    0.0000 C   0  0
  1  5  1  0
  1  2  1  0
  2  3  1  0
  3  9  1  0
  3  4  2  3
  4  5  1  0
  4  6  1  0
  6  7  2  3
  7  8  1  0
  8  9  2  3
M  END
> <Name>
2,3-dihydrobenzofuran

> <CAS>
000496-16-2

> <ID Model>
283

> <HOMO>
-8.89

> <D_PathSumFRel>
0

> <G_ClBrI>
0

> <SeaC2C2aa>
8.917853

> <logkOH_EXP>
10.44

> <logkOH PRED>
10.5

> <Hat>
0.022

> <Hat Rif>
0.08

> <smiles>
C1CC2=C(O1)C=CC=C2

> <Mol Id>
283

$$$$
bicyclo(2,2,1)-2-heptene
  SciTegic05311115012D

  9 10  0  0  0  0            999 V2000
    0.0000    0.0000    0.0000 C   0  0
    0.0000    0.0000    0.0000 C   0  0
    0.0000    0.0000    0.0000 C   0  0
    0.0000    0.0000    0.0000 H   0  0
    0.0000    0.0000    0.0000 C   0  0
    0.0000    0.0000    0.0000 C   0  0
    0.0000    0.0000    0.0000 H   0  0
    0.0000    0.0000    0.0000 C   0  0
    0.0000    0.0000    0.0000 C   0  0
  1  6  1  0
  1  2  1  0
  2  3  1  0
  3  4  1  0
  3  9  1  0
  3  5  1  0
  5  6  1  0
  6  7  1  0
  6  8  1  0
  8  9  2  3
M  END
> <Name>
bicyclo(2,2,1)-2-heptene

> <CAS>
000498-66-8

> <ID Model>
284

> <HOMO>
-9.58

> <D_PathSumFRel>
0

> <G_ClBrI>
0

> <SeaC2C2aa>
0

> <logkOH_EXP>
10.31

> <logkOH PRED>
10.41

> <Hat>
0.01

> <Hat Rif>
0.08

> <smiles>
C1C[C@@H]2C[C@H]1C=C2

> <Mol Id>
284

$$$$
1,3-dioxane
  SciTegic05311115012D

  6  6  0  0  0  0            999 V2000
    0.0000    0.0000    0.0000 C   0  0
    0.0000    0.0000    0.0000 C   0  0
    0.0000    0.0000    0.0000 O   0  0
    0.0000    0.0000    0.0000 C   0  0
    0.0000    0.0000    0.0000 O   0  0
    0.0000    0.0000    0.0000 C   0  0
  1  6  1  0
  1  2  1  0
  2  3  1  0
  3  4  1  0
  4  5  1  0
  5  6  1  0
M  END
> <Name>
1,3-dioxane

> <CAS>
000505-22-6

> <ID Model>
286

> <HOMO>
-10.64

> <D_PathSumFRel>
0

> <G_ClBrI>
0

> <SeaC2C2aa>
0

> <logkOH_EXP>
11.04

> <logkOH PRED>
11.12

> <Hat>
0.008

> <Hat Rif>
0.08

> <smiles>
C1COCOC1

> <Mol Id>
286

$$$$
trimethyl phosphate
  SciTegic05311115012D

  8  7  0  0  0  0            999 V2000
    0.0000    0.0000    0.0000 C   0  0
    0.0000    0.0000    0.0000 O   0  0
    0.0000    0.0000    0.0000 P   0  0
    0.0000    0.0000    0.0000 O   0  0
    0.0000    0.0000    0.0000 O   0  0
    0.0000    0.0000    0.0000 C   0  0
    0.0000    0.0000    0.0000 O   0  0
    0.0000    0.0000    0.0000 C   0  0
  1  2  1  0
  2  3  1  0
  3  4  2  0
  3  5  1  0
  3  7  1  0
  5  6  1  0
  7  8  1  0
M  END
> <Name>
trimethyl phosphate

> <CAS>
000512-56-1

> <ID Model>
287

> <HOMO>
-11.69

> <D_PathSumFRel>
0

> <G_ClBrI>
0

> <SeaC2C2aa>
0

> <logkOH_EXP>
11.13

> <logkOH PRED>
11.83

> <Hat>
0.021

> <Hat Rif>
0.08

> <smiles>
COP(=O)(OC)OC

> <Mol Id>
287

$$$$
2-methyl-2-butene
  SciTegic05311115012D

  5  4  0  0  0  0            999 V2000
    0.0000    0.0000    0.0000 C   0  0
    0.0000    0.0000    0.0000 C   0  0
    0.0000    0.0000    0.0000 C   0  0
    0.0000    0.0000    0.0000 C   0  0
    0.0000    0.0000    0.0000 C   0  0
  1  2  1  0
  2  3  2  3
  3  4  1  0
  3  5  1  0
M  END
> <Name>
2-methyl-2-butene

> <CAS>
000513-35-9

> <ID Model>
288

> <HOMO>
-9.24

> <D_PathSumFRel>
0

> <G_ClBrI>
0

> <SeaC2C2aa>
0

> <logkOH_EXP>
10.06

> <logkOH PRED>
10.18

> <Hat>
0.015

> <Hat Rif>
0.08

> <smiles>
C\C=C(\C)C

> <Mol Id>
288

$$$$
2-methyl-1-propanethiol
  SciTegic05311115012D

  5  4  0  0  0  0            999 V2000
    0.0000    0.0000    0.0000 C   0  0
    0.0000    0.0000    0.0000 C   0  0
    0.0000    0.0000    0.0000 C   0  0
    0.0000    0.0000    0.0000 C   0  0
    0.0000    0.0000    0.0000 S   0  0
  1  2  1  0
  2  3  1  0
  2  4  1  0
  4  5  1  0
M  END
> <Name>
2-methyl-1-propanethiol

> <CAS>
000513-44-0

> <ID Model>
289

> <HOMO>
-8.88

> <D_PathSumFRel>
0

> <G_ClBrI>
0

> <SeaC2C2aa>
0

> <logkOH_EXP>
10.38

> <logkOH PRED>
9.93

> <Hat>
0.021

> <Hat Rif>
0.08

> <smiles>
CC(C)CS

> <Mol Id>
289

$$$$
2-butanethiol
  SciTegic05311115012D

  6  5  0  0  0  0            999 V2000
    0.0000    0.0000    0.0000 C   0  0
    0.0000    0.0000    0.0000 C   0  0
    0.0000    0.0000    0.0000 C   0  0
    0.0000    0.0000    0.0000 H   0  0
    0.0000    0.0000    0.0000 C   0  0
    0.0000    0.0000    0.0000 S   0  0
  1  2  1  0
  2  3  1  0
  3  4  1  0
  3  5  1  0
  3  6  1  0
M  END
> <Name>
2-butanethiol

> <CAS>
000513-53-1

> <ID Model>
290

> <HOMO>
-8.89

> <D_PathSumFRel>
0

> <G_ClBrI>
0

> <SeaC2C2aa>
0

> <logkOH_EXP>
10.4

> <logkOH PRED>
9.94

> <Hat>
0.021

> <Hat Rif>
0.08

> <smiles>
CC[C@@H](C)S

> <Mol Id>
290

$$$$
1-chloropropane
  SciTegic05311115012D

  4  3  0  0  0  0            999 V2000
    0.0000    0.0000    0.0000 C   0  0
    0.0000    0.0000    0.0000 C   0  0
    0.0000    0.0000    0.0000 C   0  0
    0.0000    0.0000    0.0000 Cl  0  0
  1  2  1  0
  2  3  1  0
  3  4  1  0
M  END
> <Name>
1-chloropropane

> <CAS>
000540-54-5

> <ID Model>
294

> <HOMO>
-11.13

> <D_PathSumFRel>
0

> <G_ClBrI>
1

> <SeaC2C2aa>
0

> <logkOH_EXP>
12.1

> <logkOH PRED>
11.86

> <Hat>
0.018

> <Hat Rif>
0.08

> <smiles>
CCCCl

> <Mol Id>
294

$$$$
2-methyl-2-propyl nitrite
  SciTegic05311115012D

  7  6  0  0  0  0            999 V2000
    0.0000    0.0000    0.0000 C   0  0
    0.0000    0.0000    0.0000 C   0  0
    0.0000    0.0000    0.0000 C   0  0
    0.0000    0.0000    0.0000 C   0  0
    0.0000    0.0000    0.0000 O   0  0
    0.0000    0.0000    0.0000 N   0  0
    0.0000    0.0000    0.0000 O   0  0
  1  2  1  0
  2  3  1  0
  2  4  1  0
  2  5  1  0
  5  6  1  0
  6  7  2  0
M  END
> <Name>
2-methyl-2-propyl nitrite

> <CAS>
000540-80-7

> <ID Model>
295

> <HOMO>
-10.94

> <D_PathSumFRel>
0

> <G_ClBrI>
0

> <SeaC2C2aa>
0

> <logkOH_EXP>
11.85

> <logkOH PRED>
11.32

> <Hat>
0.01

> <Hat Rif>
0.08

> <smiles>
CC(C)(C)ON=O

> <Mol Id>
295

$$$$
2,2,4-trimethylpentane
  SciTegic05311115012D

  8  7  0  0  0  0            999 V2000
    0.0000    0.0000    0.0000 C   0  0
    0.0000    0.0000    0.0000 C   0  0
    0.0000    0.0000    0.0000 C   0  0
    0.0000    0.0000    0.0000 C   0  0
    0.0000    0.0000    0.0000 C   0  0
    0.0000    0.0000    0.0000 C   0  0
    0.0000    0.0000    0.0000 C   0  0
    0.0000    0.0000    0.0000 C   0  0
  1  2  1  0
  2  3  1  0
  2  4  1  0
  4  5  1  0
  5  6  1  0
  5  7  1  0
  5  8  1  0
M  END
> <Name>
2,2,4-trimethylpentane

> <CAS>
000540-84-1

> <ID Model>
296

> <HOMO>
-11

> <D_PathSumFRel>
0

> <G_ClBrI>
0

> <SeaC2C2aa>
0

> <logkOH_EXP>
11.45

> <logkOH PRED>
11.36

> <Hat>
0.011

> <Hat Rif>
0.08

> <smiles>
CC(C)CC(C)(C)C

> <Mol Id>
296

$$$$
m-dichlorobenzene
  SciTegic05311115012D

  8  8  0  0  0  0            999 V2000
    0.0000    0.0000    0.0000 Cl  0  0
    0.0000    0.0000    0.0000 C   0  0
    0.0000    0.0000    0.0000 C   0  0
    0.0000    0.0000    0.0000 C   0  0
    0.0000    0.0000    0.0000 Cl  0  0
    0.0000    0.0000    0.0000 C   0  0
    0.0000    0.0000    0.0000 C   0  0
    0.0000    0.0000    0.0000 C   0  0
  1  2  1  0
  2  8  1  0
  2  3  2  3
  3  4  1  0
  4  5  1  0
  4  6  2  3
  6  7  1  0
  7  8  2  3
M  END
> <Name>
m-dichlorobenzene

> <CAS>
000541-73-1

> <ID Model>
298

> <HOMO>
-9.68

> <D_PathSumFRel>
0

> <G_ClBrI>
2

> <SeaC2C2aa>
5.223198

> <logkOH_EXP>
12.14

> <logkOH PRED>
11.62

> <Hat>
0.051

> <Hat Rif>
0.08

> <smiles>
ClC1=CC(Cl)=CC=C1

> <Mol Id>
298

$$$$
3,3-dimethyl-1-butene
  SciTegic05311115012D

  6  5  0  0  0  0            999 V2000
    0.0000    0.0000    0.0000 C   0  0
    0.0000    0.0000    0.0000 C   0  0
    0.0000    0.0000    0.0000 C   0  0
    0.0000    0.0000    0.0000 C   0  0
    0.0000    0.0000    0.0000 C   0  0
    0.0000    0.0000    0.0000 C   0  0
  1  2  1  0
  2  3  1  0
  2  4  1  0
  2  5  1  0
  5  6  2  0
M  END
> <Name>
3,3-dimethyl-1-butene

> <CAS>
000558-37-2

> <ID Model>
307

> <HOMO>
-10.04

> <D_PathSumFRel>
0

> <G_ClBrI>
0

> <SeaC2C2aa>
0

> <logkOH_EXP>
10.55

> <logkOH PRED>
10.72

> <Hat>
0.007

> <Hat Rif>
0.08

> <smiles>
CC(C)(C)C=C

> <Mol Id>
307

$$$$
2-methyl-1-butene
  SciTegic05311115012D

  5  4  0  0  0  0            999 V2000
    0.0000    0.0000    0.0000 C   0  0
    0.0000    0.0000    0.0000 C   0  0
    0.0000    0.0000    0.0000 C   0  0
    0.0000    0.0000    0.0000 C   0  0
    0.0000    0.0000    0.0000 C   0  0
  1  2  1  0
  2  3  1  0
  3  4  1  0
  3  5  2  0
M  END
> <Name>
2-methyl-1-butene

> <CAS>
000563-46-2

> <ID Model>
309

> <HOMO>
-9.65

> <D_PathSumFRel>
0

> <G_ClBrI>
0

> <SeaC2C2aa>
0

> <logkOH_EXP>
10.22

> <logkOH PRED>
10.45

> <Hat>
0.01

> <Hat Rif>
0.08

> <smiles>
CCC(C)=C

> <Mol Id>
309

$$$$
2-methyl-3-pentanone
  SciTegic05311115012D

  7  6  0  0  0  0            999 V2000
    0.0000    0.0000    0.0000 C   0  0
    0.0000    0.0000    0.0000 C   0  0
    0.0000    0.0000    0.0000 C   0  0
    0.0000    0.0000    0.0000 O   0  0
    0.0000    0.0000    0.0000 C   0  0
    0.0000    0.0000    0.0000 C   0  0
    0.0000    0.0000    0.0000 C   0  0
  1  2  1  0
  2  3  1  0
  3  4  2  0
  3  5  1  0
  5  6  1  0
  5  7  1  0
M  END
> <Name>
2-methyl-3-pentanone

> <CAS>
000565-69-5

> <ID Model>
311

> <HOMO>
-10.3

> <D_PathSumFRel>
0

> <G_ClBrI>
0

> <SeaC2C2aa>
0

> <logkOH_EXP>
10.83

> <logkOH PRED>
10.89

> <Hat>
0.007

> <Hat Rif>
0.08

> <smiles>
CCC(=O)C(C)C

> <Mol Id>
311

$$$$
2,3,4-trimethylpentane
  SciTegic05311115012D

  8  7  0  0  0  0            999 V2000
    0.0000    0.0000    0.0000 C   0  0
    0.0000    0.0000    0.0000 C   0  0
    0.0000    0.0000    0.0000 C   0  0
    0.0000    0.0000    0.0000 C   0  0
    0.0000    0.0000    0.0000 C   0  0
    0.0000    0.0000    0.0000 C   0  0
    0.0000    0.0000    0.0000 C   0  0
    0.0000    0.0000    0.0000 C   0  0
  1  2  1  0
  2  3  1  0
  2  4  1  0
  4  5  1  0
  4  6  1  0
  6  7  1  0
  6  8  1  0
M  END
> <Name>
2,3,4-trimethylpentane

> <CAS>
000565-75-3

> <ID Model>
312

> <HOMO>
-10.9

> <D_PathSumFRel>
0

> <G_ClBrI>
0

> <SeaC2C2aa>
0

> <logkOH_EXP>
11.16

> <logkOH PRED>
11.3

> <Hat>
0.01

> <Hat Rif>
0.08

> <smiles>
CC(C)C(C)C(C)C

> <Mol Id>
312

$$$$
1,4-dimethylnaphthalene
  SciTegic05311115012D

 12 13  0  0  0  0            999 V2000
    0.0000    0.0000    0.0000 C   0  0
    0.0000    0.0000    0.0000 C   0  0
    0.0000    0.0000    0.0000 C   0  0
    0.0000    0.0000    0.0000 C   0  0
    0.0000    0.0000    0.0000 C   0  0
    0.0000    0.0000    0.0000 C   0  0
    0.0000    0.0000    0.0000 C   0  0
    0.0000    0.0000    0.0000 C   0  0
    0.0000    0.0000    0.0000 C   0  0
    0.0000    0.0000    0.0000 C   0  0
    0.0000    0.0000    0.0000 C   0  0
    0.0000    0.0000    0.0000 C   0  0
  1  2  1  0
  2  8  1  0
  2  3  2  3
  3  4  1  0
  4  5  2  3
  5  6  1  0
  5  7  1  0
  7 12  1  0
  7  8  2  3
  8  9  1  0
  9 10  2  3
 10 11  1  0
 11 12  2  3
M  END
> <Name>
1,4-dimethylnaphthalene

> <CAS>
000571-58-4

> <ID Model>
314

> <HOMO>
-8.42

> <D_PathSumFRel>
0

> <G_ClBrI>
0

> <SeaC2C2aa>
12.58821

> <logkOH_EXP>
11.24

> <logkOH PRED>
10.41

> <Hat>
0.04

> <Hat Rif>
0.08

> <smiles>
CC1=CC=C(C)C2=C1C=CC=C2

> <Mol Id>
314

$$$$
2,3-dichlorophenol
  SciTegic05311115012D

  9  9  0  0  0  0            999 V2000
    0.0000    0.0000    0.0000 O   0  0
    0.0000    0.0000    0.0000 C   0  0
    0.0000    0.0000    0.0000 C   0  0
    0.0000    0.0000    0.0000 C   0  0
    0.0000    0.0000    0.0000 C   0  0
    0.0000    0.0000    0.0000 C   0  0
    0.0000    0.0000    0.0000 Cl  0  0
    0.0000    0.0000    0.0000 C   0  0
    0.0000    0.0000    0.0000 Cl  0  0
  1  2  1  0
  2  8  1  0
  2  3  2  3
  3  4  1  0
  4  5  2  3
  5  6  1  0
  6  7  1  0
  6  8  2  3
  8  9  1  0
M  END
> <Name>
2,3-dichlorophenol

> <CAS>
000576-24-9

> <ID Model>
315

> <HOMO>
-9.39

> <D_PathSumFRel>
0

> <G_ClBrI>
2

> <SeaC2C2aa>
4.784869

> <logkOH_EXP>
11.78

> <logkOH PRED>
11.4

> <Hat>
0.054

> <Hat Rif>
0.08

> <smiles>
OC1=CC=CC(Cl)=C1Cl

> <Mol Id>
315

$$$$
2,6-dimethylphenol
  SciTegic05311115012D

  9  9  0  0  0  0            999 V2000
    0.0000    0.0000    0.0000 C   0  0
    0.0000    0.0000    0.0000 C   0  0
    0.0000    0.0000    0.0000 C   0  0
    0.0000    0.0000    0.0000 C   0  0
    0.0000    0.0000    0.0000 C   0  0
    0.0000    0.0000    0.0000 C   0  0
    0.0000    0.0000    0.0000 C   0  0
    0.0000    0.0000    0.0000 C   0  0
    0.0000    0.0000    0.0000 O   0  0
  1  2  1  0
  2  8  1  0
  2  3  2  3
  3  4  1  0
  4  5  2  3
  5  6  1  0
  6  7  1  0
  6  8  2  3
  8  9  1  0
M  END
> <Name>
2,6-dimethylphenol

> <CAS>
000576-26-1

> <ID Model>
316

> <HOMO>
-8.89

> <D_PathSumFRel>
0

> <G_ClBrI>
0

> <SeaC2C2aa>
5.834792

> <logkOH_EXP>
10.18

> <logkOH PRED>
10.31

> <Hat>
0.015

> <Hat Rif>
0.08

> <smiles>
CC1=CC=CC(C)=C1O

> <Mol Id>
316

$$$$
2,3-dimethylnaphthalene
  SciTegic05311115012D

 12 13  0  0  0  0            999 V2000
    0.0000    0.0000    0.0000 C   0  0
    0.0000    0.0000    0.0000 C   0  0
    0.0000    0.0000    0.0000 C   0  0
    0.0000    0.0000    0.0000 C   0  0
    0.0000    0.0000    0.0000 C   0  0
    0.0000    0.0000    0.0000 C   0  0
    0.0000    0.0000    0.0000 C   0  0
    0.0000    0.0000    0.0000 C   0  0
    0.0000    0.0000    0.0000 C   0  0
    0.0000    0.0000    0.0000 C   0  0
    0.0000    0.0000    0.0000 C   0  0
    0.0000    0.0000    0.0000 C   0  0
  1  2  1  0
  2 11  1  0
  2  3  2  3
  3  4  1  0
  4  9  1  0
  4  5  2  3
  5  6  1  0
  5 10  1  0
  6  7  2  3
  7  8  1  0
  8  9  2  3
 10 11  2  3
 11 12  1  0
M  END
> <Name>
2,3-dimethylnaphthalene

> <CAS>
000581-40-8

> <ID Model>
317

> <HOMO>
-8.55

> <D_PathSumFRel>
0

> <G_ClBrI>
0

> <SeaC2C2aa>
9.210617

> <logkOH_EXP>
10.12

> <logkOH PRED>
10.29

> <Hat>
0.026

> <Hat Rif>
0.08

> <smiles>
CC1=CC2=C(C=CC=C2)C=C1C

> <Mol Id>
317

$$$$
3-hexanone
  SciTegic05311115012D

  7  6  0  0  0  0            999 V2000
    0.0000    0.0000    0.0000 C   0  0
    0.0000    0.0000    0.0000 C   0  0
    0.0000    0.0000    0.0000 C   0  0
    0.0000    0.0000    0.0000 C   0  0
    0.0000    0.0000    0.0000 O   0  0
    0.0000    0.0000    0.0000 C   0  0
    0.0000    0.0000    0.0000 C   0  0
  1  2  1  0
  2  3  1  0
  3  4  1  0
  4  5  2  0
  4  6  1  0
  6  7  1  0
M  END
> <Name>
3-hexanone

> <CAS>
000589-38-8

> <ID Model>
321

> <HOMO>
-10.41

> <D_PathSumFRel>
0

> <G_ClBrI>
0

> <SeaC2C2aa>
0

> <logkOH_EXP>
11.16

> <logkOH PRED>
10.97

> <Hat>
0.007

> <Hat Rif>
0.08

> <smiles>
CCCC(=O)CC

> <Mol Id>
321

$$$$
cis-2-butene
  SciTegic05311115012D

  4  3  0  0  0  0            999 V2000
    0.0000    0.0000    0.0000 C   0  0
    0.0000    0.0000    0.0000 C   0  0
    0.0000    0.0000    0.0000 C   0  0
    0.0000    0.0000    0.0000 C   0  0
  1  2  1  0
  2  3  2  3
  3  4  1  0
M  END
> <Name>
cis-2-butene

> <CAS>
000590-18-1

> <ID Model>
322

> <HOMO>
-9.54

> <D_PathSumFRel>
0

> <G_ClBrI>
0

> <SeaC2C2aa>
0

> <logkOH_EXP>
10.26

> <logkOH PRED>
10.38

> <Hat>
0.011

> <Hat Rif>
0.08

> <smiles>
C\C=C/C

> <Mol Id>
322

$$$$
2-hexanone
  SciTegic05311115012D

  7  6  0  0  0  0            999 V2000
    0.0000    0.0000    0.0000 C   0  0
    0.0000    0.0000    0.0000 C   0  0
    0.0000    0.0000    0.0000 C   0  0
    0.0000    0.0000    0.0000 C   0  0
    0.0000    0.0000    0.0000 C   0  0
    0.0000    0.0000    0.0000 C   0  0
    0.0000    0.0000    0.0000 O   0  0
  1  2  1  0
  2  3  1  0
  3  4  1  0
  4  5  1  0
  5  6  1  0
  5  7  2  0
M  END
> <Name>
2-hexanone

> <CAS>
000591-78-6

> <ID Model>
327

> <HOMO>
-10.53

> <D_PathSumFRel>
0

> <G_ClBrI>
0

> <SeaC2C2aa>
0

> <logkOH_EXP>
11.04

> <logkOH PRED>
11.05

> <Hat>
0.007

> <Hat Rif>
0.08

> <smiles>
CCCCC(C)=O

> <Mol Id>
327

$$$$
1,4-pentadiene
  SciTegic05311115012D

  5  4  0  0  0  0            999 V2000
    0.0000    0.0000    0.0000 C   0  0
    0.0000    0.0000    0.0000 C   0  0
    0.0000    0.0000    0.0000 C   0  0
    0.0000    0.0000    0.0000 C   0  0
    0.0000    0.0000    0.0000 C   0  0
  1  2  2  0
  2  3  1  0
  3  4  1  0
  4  5  2  0
M  END
> <Name>
1,4-pentadiene

> <CAS>
000591-93-5

> <ID Model>
328

> <HOMO>
-9.72

> <D_PathSumFRel>
0

> <G_ClBrI>
0

> <SeaC2C2aa>
0

> <logkOH_EXP>
10.27

> <logkOH PRED>
10.5

> <Hat>
0.009

> <Hat Rif>
0.08

> <smiles>
C=CCC=C

> <Mol Id>
328

$$$$
trans-1,3-hexadiene
  SciTegic05311115012D

  6  5  0  0  0  0            999 V2000
    0.0000    0.0000    0.0000 C   0  0
    0.0000    0.0000    0.0000 C   0  0
    0.0000    0.0000    0.0000 C   0  0
    0.0000    0.0000    0.0000 C   0  0
    0.0000    0.0000    0.0000 C   0  0
    0.0000    0.0000    0.0000 C   0  0
  1  2  1  0
  2  3  1  0
  3  4  2  3
  4  5  1  0
  5  6  2  0
M  END
> <Name>
trans-1,3-hexadiene

> <CAS>
000592-48-3

> <ID Model>
332

> <HOMO>
-9.01

> <D_PathSumFRel>
0

> <G_ClBrI>
0

> <SeaC2C2aa>
0

> <logkOH_EXP>
9.95

> <logkOH PRED>
10.02

> <Hat>
0.019

> <Hat Rif>
0.08

> <smiles>
CCC=CC=C

> <Mol Id>
332

$$$$
1,3-cyclohexadiene
  SciTegic05311115012D

  6  6  0  0  0  0            999 V2000
    0.0000    0.0000    0.0000 C   0  0
    0.0000    0.0000    0.0000 C   0  0
    0.0000    0.0000    0.0000 C   0  0
    0.0000    0.0000    0.0000 C   0  0
    0.0000    0.0000    0.0000 C   0  0
    0.0000    0.0000    0.0000 C   0  0
  1  6  1  0
  1  2  1  0
  2  3  1  0
  3  4  2  3
  4  5  1  0
  5  6  2  3
M  END
> <Name>
1,3-cyclohexadiene

> <CAS>
000592-57-4

> <ID Model>
333

> <HOMO>
-8.76

> <D_PathSumFRel>
0

> <G_ClBrI>
0

> <SeaC2C2aa>
0

> <logkOH_EXP>
9.79

> <logkOH PRED>
9.85

> <Hat>
0.024

> <Hat Rif>
0.08

> <smiles>
C1CC=CC=C1

> <Mol Id>
333

$$$$
1-heptene
  SciTegic05311115012D

  7  6  0  0  0  0            999 V2000
    0.0000    0.0000    0.0000 C   0  0
    0.0000    0.0000    0.0000 C   0  0
    0.0000    0.0000    0.0000 C   0  0
    0.0000    0.0000    0.0000 C   0  0
    0.0000    0.0000    0.0000 C   0  0
    0.0000    0.0000    0.0000 C   0  0
    0.0000    0.0000    0.0000 C   0  0
  1  2  1  0
  2  3  1  0
  3  4  1  0
  4  5  1  0
  5  6  1  0
  6  7  2  0
M  END
> <Name>
1-heptene

> <CAS>
000592-76-7

> <ID Model>
334

> <HOMO>
-9.99

> <D_PathSumFRel>
0

> <G_ClBrI>
0

> <SeaC2C2aa>
0

> <logkOH_EXP>
10.39

> <logkOH PRED>
10.68

> <Hat>
0.007

> <Hat Rif>
0.08

> <smiles>
CCCCCC=C

> <Mol Id>
334

$$$$
fluoromethane
  SciTegic05311115012D

  2  1  0  0  0  0            999 V2000
    0.0000    0.0000    0.0000 C   0  0
    0.0000    0.0000    0.0000 F   0  0
  1  2  1  0
M  END
> <Name>
fluoromethane

> <CAS>
000593-53-3

> <ID Model>
337

> <HOMO>
-12.1

> <D_PathSumFRel>
1

> <G_ClBrI>
0

> <SeaC2C2aa>
0

> <logkOH_EXP>
13.8

> <logkOH PRED>
13.52

> <Hat>
0.088*

> <Hat Rif>
0.08

> <smiles>
CF

> <Mol Id>
337

$$$$
2,2-dichloropropane
  SciTegic05311115012D

  5  4  0  0  0  0            999 V2000
    0.0000    0.0000    0.0000 C   0  0
    0.0000    0.0000    0.0000 C   0  0
    0.0000    0.0000    0.0000 C   0  0
    0.0000    0.0000    0.0000 Cl  0  0
    0.0000    0.0000    0.0000 Cl  0  0
  1  2  1  0
  2  3  1  0
  2  4  1  0
  2  5  1  0
M  END
> <Name>
2,2-dichloropropane

> <CAS>
000594-20-7

> <ID Model>
340

> <HOMO>
-11.54

> <D_PathSumFRel>
0

> <G_ClBrI>
2

> <SeaC2C2aa>
0

> <logkOH_EXP>
13.1

> <logkOH PRED>
12.55

> <Hat>
0.054

> <Hat Rif>
0.08

> <smiles>
CC(C)(Cl)Cl

> <Mol Id>
340

$$$$
3-methyl-2-butanol
  SciTegic05311115012D

  7  6  0  0  0  0            999 V2000
    0.0000    0.0000    0.0000 C   0  0
    0.0000    0.0000    0.0000 C   0  0
    0.0000    0.0000    0.0000 C   0  0
    0.0000    0.0000    0.0000 C   0  0
    0.0000    0.0000    0.0000 H   0  0
    0.0000    0.0000    0.0000 C   0  0
    0.0000    0.0000    0.0000 O   0  0
  1  2  1  0
  2  3  1  0
  2  4  1  0
  4  5  1  0
  4  6  1  0
  4  7  1  0
M  END
> <Name>
3-methyl-2-butanol

> <CAS>
000598-75-4

> <ID Model>
345

> <HOMO>
-10.82

> <D_PathSumFRel>
0

> <G_ClBrI>
0

> <SeaC2C2aa>
0

> <logkOH_EXP>
10.92

> <logkOH PRED>
11.24

> <Hat>
0.009

> <Hat Rif>
0.08

> <smiles>
CC(C)[C@@H](C)O

> <Mol Id>
345

$$$$
1,3-Ethylmethylbenzene
  SciTegic05311115012D

  9  9  0  0  0  0            999 V2000
    0.0000    0.0000    0.0000 C   0  0
    0.0000    0.0000    0.0000 C   0  0
    0.0000    0.0000    0.0000 C   0  0
    0.0000    0.0000    0.0000 C   0  0
    0.0000    0.0000    0.0000 C   0  0
    0.0000    0.0000    0.0000 C   0  0
    0.0000    0.0000    0.0000 C   0  0
    0.0000    0.0000    0.0000 C   0  0
    0.0000    0.0000    0.0000 C   0  0
  1  2  1  0
  2  3  1  0
  3  9  1  0
  3  4  2  3
  4  5  1  0
  5  6  2  3
  6  7  1  0
  7  8  1  0
  7  9  2  3
M  END
> <Name>
1,3-Ethylmethylbenzene

> <CAS>
000620-14-4

> <ID Model>
347

> <HOMO>
-9.22

> <D_PathSumFRel>
0

> <G_ClBrI>
0

> <SeaC2C2aa>
6.425822

> <logkOH_EXP>
10.77

> <logkOH PRED>
10.56

> <Hat>
0.013

> <Hat Rif>
0.08

> <smiles>
CCC1=CC=CC(C)=C1

> <Mol Id>
347

$$$$
N,N'-diphenyl-methylenediamine
  SciTegic05311115012D

 15 16  0  0  0  0            999 V2000
    0.0000    0.0000    0.0000 C   0  0
    0.0000    0.0000    0.0000 N   0  0
    0.0000    0.0000    0.0000 C   0  0
    0.0000    0.0000    0.0000 C   0  0
    0.0000    0.0000    0.0000 C   0  0
    0.0000    0.0000    0.0000 C   0  0
    0.0000    0.0000    0.0000 C   0  0
    0.0000    0.0000    0.0000 C   0  0
    0.0000    0.0000    0.0000 N   0  0
    0.0000    0.0000    0.0000 C   0  0
    0.0000    0.0000    0.0000 C   0  0
    0.0000    0.0000    0.0000 C   0  0
    0.0000    0.0000    0.0000 C   0  0
    0.0000    0.0000    0.0000 C   0  0
    0.0000    0.0000    0.0000 C   0  0
  1  2  1  0
  1  9  1  0
  2  3  1  0
  3  8  1  0
  3  4  2  3
  4  5  1  0
  5  6  2  3
  6  7  1  0
  7  8  2  3
  9 10  1  0
 10 15  1  0
 10 11  2  3
 11 12  1  0
 12 13  2  3
 13 14  1  0
 14 15  2  3
M  END
> <Name>
N,N'-diphenyl-methylenediamine

> <CAS>
000622-14-0

> <ID Model>
348

> <HOMO>
-8.51

> <D_PathSumFRel>
0

> <G_ClBrI>
0

> <SeaC2C2aa>
24.03211

> <logkOH_EXP>
10.52

> <logkOH PRED>
11.18

> <Hat>
0.143*

> <Hat Rif>
0.08

> <smiles>
C(NC1=CC=CC=C1)NC1=CC=CC=C1

> <Mol Id>
348

$$$$
1,4-ethylmethylbenzene
  SciTegic05311115012D

  9  9  0  0  0  0            999 V2000
    0.0000    0.0000    0.0000 C   0  0
    0.0000    0.0000    0.0000 C   0  0
    0.0000    0.0000    0.0000 C   0  0
    0.0000    0.0000    0.0000 C   0  0
    0.0000    0.0000    0.0000 C   0  0
    0.0000    0.0000    0.0000 C   0  0
    0.0000    0.0000    0.0000 C   0  0
    0.0000    0.0000    0.0000 C   0  0
    0.0000    0.0000    0.0000 C   0  0
  1  2  1  0
  2  3  1  0
  3  9  1  0
  3  4  2  3
  4  5  1  0
  5  6  2  3
  6  7  1  0
  6  8  1  0
  8  9  2  3
M  END
> <Name>
1,4-ethylmethylbenzene

> <CAS>
000622-96-8

> <ID Model>
349

> <HOMO>
-9.1

> <D_PathSumFRel>
0

> <G_ClBrI>
0

> <SeaC2C2aa>
6.57912

> <logkOH_EXP>
10.95

> <logkOH PRED>
10.49

> <Hat>
0.014

> <Hat Rif>
0.08

> <smiles>
CCC1=CC=C(C)C=C1

> <Mol Id>
349

$$$$
trans-2-butene
  SciTegic05311115012D

  4  3  0  0  0  0            999 V2000
    0.0000    0.0000    0.0000 C   0  0
    0.0000    0.0000    0.0000 C   0  0
    0.0000    0.0000    0.0000 C   0  0
    0.0000    0.0000    0.0000 C   0  0
  1  2  1  0
  2  3  2  3
  3  4  1  0
M  END
> <Name>
trans-2-butene

> <CAS>
000624-64-6

> <ID Model>
351

> <HOMO>
-9.53

> <D_PathSumFRel>
0

> <G_ClBrI>
0

> <SeaC2C2aa>
0

> <logkOH_EXP>
10.23

> <logkOH PRED>
10.37

> <Hat>
0.011

> <Hat Rif>
0.08

> <smiles>
CC=CC

> <Mol Id>
351

$$$$
ethyl methyl sulfide
  SciTegic05311115012D

  4  3  0  0  0  0            999 V2000
    0.0000    0.0000    0.0000 C   0  0
    0.0000    0.0000    0.0000 C   0  0
    0.0000    0.0000    0.0000 S   0  0
    0.0000    0.0000    0.0000 C   0  0
  1  2  1  0
  2  3  1  0
  3  4  1  0
M  END
> <Name>
ethyl methyl sulfide

> <CAS>
000624-89-5

> <ID Model>
353

> <HOMO>
-8.46

> <D_PathSumFRel>
0

> <G_ClBrI>
0

> <SeaC2C2aa>
0

> <logkOH_EXP>
11.07

> <logkOH PRED>
9.65

> <Hat>
0.031

> <Hat Rif>
0.08

> <smiles>
CCSC

> <Mol Id>
353

$$$$
1-nitrobutane
  SciTegic05311115012D

  7  6  0  0  0  0            999 V2000
    0.0000    0.0000    0.0000 C   0  0
    0.0000    0.0000    0.0000 C   0  0
    0.0000    0.0000    0.0000 C   0  0
    0.0000    0.0000    0.0000 C   0  0
    0.0000    0.0000    0.0000 N   0  0
    0.0000    0.0000    0.0000 O   0  0
    0.0000    0.0000    0.0000 O   0  0
  1  2  1  0
  2  3  1  0
  3  4  1  0
  4  5  1  0
  5  6  1  0
  5  7  1  0
M  END
> <Name>
1-nitrobutane

> <CAS>
000627-05-4

> <ID Model>
358

> <HOMO>
-11.69

> <D_PathSumFRel>
0

> <G_ClBrI>
0

> <SeaC2C2aa>
0

> <logkOH_EXP>
11.81

> <logkOH PRED>
11.83

> <Hat>
0.021

> <Hat Rif>
0.08

> <smiles>
CCCCN(O)O

> <Mol Id>
358

$$$$
1-pentyne
  SciTegic05311115012D

  5  4  0  0  0  0            999 V2000
    0.0000    0.0000    0.0000 C   0  0
    0.0000    0.0000    0.0000 C   0  0
    0.0000    0.0000    0.0000 C   0  0
    0.0000    0.0000    0.0000 C   0  0
    0.0000    0.0000    0.0000 C   0  0
  1  2  1  0
  2  3  1  0
  3  4  1  0
  4  5  3  0
M  END
> <Name>
1-pentyne

> <CAS>
000627-19-0

> <ID Model>
360

> <HOMO>
-10.61

> <D_PathSumFRel>
0

> <G_ClBrI>
0

> <SeaC2C2aa>
0

> <logkOH_EXP>
10.95

> <logkOH PRED>
11.1

> <Hat>
0.008

> <Hat Rif>
0.08

> <smiles>
CCCC#C

> <Mol Id>
360

$$$$
2,5-dimethyl-1,5-hexadiene
  SciTegic05311115012D

  8  7  0  0  0  0            999 V2000
    0.0000    0.0000    0.0000 C   0  0
    0.0000    0.0000    0.0000 C   0  0
    0.0000    0.0000    0.0000 C   0  0
    0.0000    0.0000    0.0000 C   0  0
    0.0000    0.0000    0.0000 C   0  0
    0.0000    0.0000    0.0000 C   0  0
    0.0000    0.0000    0.0000 C   0  0
    0.0000    0.0000    0.0000 C   0  0
  1  2  1  0
  2  3  2  0
  2  4  1  0
  4  5  1  0
  5  6  1  0
  6  7  1  0
  6  8  2  0
M  END
> <Name>
2,5-dimethyl-1,5-hexadiene

> <CAS>
000627-58-7

> <ID Model>
362

> <HOMO>
-9.54

> <D_PathSumFRel>
0

> <G_ClBrI>
0

> <SeaC2C2aa>
0

> <logkOH_EXP>
9.92

> <logkOH PRED>
10.38

> <Hat>
0.011

> <Hat Rif>
0.08

> <smiles>
CC(=C)CCC(C)=C

> <Mol Id>
362

$$$$
1-nitropentane
  SciTegic05311115012D

  8  7  0  0  0  0            999 V2000
    0.0000    0.0000    0.0000 C   0  0
    0.0000    0.0000    0.0000 C   0  0
    0.0000    0.0000    0.0000 C   0  0
    0.0000    0.0000    0.0000 C   0  0
    0.0000    0.0000    0.0000 C   0  0
    0.0000    0.0000    0.0000 N   0  0
    0.0000    0.0000    0.0000 O   0  0
    0.0000    0.0000    0.0000 O   0  0
  1  2  1  0
  2  3  1  0
  3  4  1  0
  4  5  1  0
  5  6  1  0
  6  7  1  0
  6  8  1  0
M  END
> <Name>
1-nitropentane

> <CAS>
000628-05-7

> <ID Model>
363

> <HOMO>
-11.64

> <D_PathSumFRel>
0

> <G_ClBrI>
0

> <SeaC2C2aa>
0

> <logkOH_EXP>
11.48

> <logkOH PRED>
11.8

> <Hat>
0.02

> <Hat Rif>
0.08

> <smiles>
CCCCCN(O)O

> <Mol Id>
363

$$$$
iso-butyl ether
  SciTegic05311115012D

  9  8  0  0  0  0            999 V2000
    0.0000    0.0000    0.0000 C   0  0
    0.0000    0.0000    0.0000 C   0  0
    0.0000    0.0000    0.0000 C   0  0
    0.0000    0.0000    0.0000 C   0  0
    0.0000    0.0000    0.0000 O   0  0
    0.0000    0.0000    0.0000 C   0  0
    0.0000    0.0000    0.0000 C   0  0
    0.0000    0.0000    0.0000 C   0  0
    0.0000    0.0000    0.0000 C   0  0
  1  2  1  0
  2  3  1  0
  2  4  1  0
  4  5  1  0
  5  6  1  0
  6  7  1  0
  7  8  1  0
  7  9  1  0
M  END
> <Name>
iso-butyl ether

> <CAS>
000628-55-7

> <ID Model>
366

> <HOMO>
-10.37

> <D_PathSumFRel>
0

> <G_ClBrI>
0

> <SeaC2C2aa>
0

> <logkOH_EXP>
10.59

> <logkOH PRED>
10.94

> <Hat>
0.007

> <Hat Rif>
0.08

> <smiles>
CC(C)COCC(C)C

> <Mol Id>
366

$$$$
ethyl butyl ether
  SciTegic05311115012D

  7  6  0  0  0  0            999 V2000
    0.0000    0.0000    0.0000 C   0  0
    0.0000    0.0000    0.0000 C   0  0
    0.0000    0.0000    0.0000 C   0  0
    0.0000    0.0000    0.0000 C   0  0
    0.0000    0.0000    0.0000 O   0  0
    0.0000    0.0000    0.0000 C   0  0
    0.0000    0.0000    0.0000 C   0  0
  1  2  1  0
  2  3  1  0
  3  4  1  0
  4  5  1  0
  5  6  1  0
  6  7  1  0
M  END
> <Name>
ethyl butyl ether

> <CAS>
000628-81-9

> <ID Model>
367

> <HOMO>
-10.39

> <D_PathSumFRel>
0

> <G_ClBrI>
0

> <SeaC2C2aa>
0

> <logkOH_EXP>
10.64

> <logkOH PRED>
10.95

> <Hat>
0.007

> <Hat Rif>
0.08

> <smiles>
CCCCOCC

> <Mol Id>
367

$$$$
cycloheptene
  SciTegic05311115012D

  7  7  0  0  0  0            999 V2000
    0.0000    0.0000    0.0000 C   0  0
    0.0000    0.0000    0.0000 C   0  0
    0.0000    0.0000    0.0000 C   0  0
    0.0000    0.0000    0.0000 C   0  0
    0.0000    0.0000    0.0000 C   0  0
    0.0000    0.0000    0.0000 C   0  0
    0.0000    0.0000    0.0000 C   0  0
  1  7  1  0
  1  2  1  0
  2  3  1  0
  3  4  1  0
  4  5  2  3
  5  6  1  0
  6  7  1  0
M  END
> <Name>
cycloheptene

> <CAS>
000628-92-2

> <ID Model>
368

> <HOMO>
-9.54

> <D_PathSumFRel>
0

> <G_ClBrI>
0

> <SeaC2C2aa>
0

> <logkOH_EXP>
10.13

> <logkOH PRED>
10.38

> <Hat>
0.011

> <Hat Rif>
0.08

> <smiles>
C1CCC=CCC1

> <Mol Id>
368

$$$$
trans-2-pentene
  SciTegic05311115012D

  5  4  0  0  0  0            999 V2000
    0.0000    0.0000    0.0000 C   0  0
    0.0000    0.0000    0.0000 C   0  0
    0.0000    0.0000    0.0000 C   0  0
    0.0000    0.0000    0.0000 C   0  0
    0.0000    0.0000    0.0000 C   0  0
  1  2  1  0
  2  3  1  0
  3  4  2  3
  4  5  1  0
M  END
> <Name>
trans-2-pentene

> <CAS>
000646-04-8

> <ID Model>
372

> <HOMO>
-9.55

> <D_PathSumFRel>
0

> <G_ClBrI>
0

> <SeaC2C2aa>
0

> <logkOH_EXP>
10.18

> <logkOH PRED>
10.39

> <Hat>
0.011

> <Hat Rif>
0.08

> <smiles>
CC\C=C\C

> <Mol Id>
372

$$$$
trans-4-methyl-2-pentene
  SciTegic05311115012D

  6  5  0  0  0  0            999 V2000
    0.0000    0.0000    0.0000 C   0  0
    0.0000    0.0000    0.0000 C   0  0
    0.0000    0.0000    0.0000 C   0  0
    0.0000    0.0000    0.0000 C   0  0
    0.0000    0.0000    0.0000 C   0  0
    0.0000    0.0000    0.0000 C   0  0
  1  2  1  0
  2  3  2  3
  3  4  1  0
  4  5  1  0
  4  6  1  0
M  END
> <Name>
trans-4-methyl-2-pentene

> <CAS>
000674-76-0

> <ID Model>
373

> <HOMO>
-9.62

> <D_PathSumFRel>
0

> <G_ClBrI>
0

> <SeaC2C2aa>
0

> <logkOH_EXP>
10.22

> <logkOH PRED>
10.43

> <Hat>
0.01

> <Hat Rif>
0.08

> <smiles>
CC=CC(C)C

> <Mol Id>
373

$$$$
trans-4,4-dimethyl-2-pentene
  SciTegic05311115012D

  7  6  0  0  0  0            999 V2000
    0.0000    0.0000    0.0000 C   0  0
    0.0000    0.0000    0.0000 C   0  0
    0.0000    0.0000    0.0000 C   0  0
    0.0000    0.0000    0.0000 C   0  0
    0.0000    0.0000    0.0000 C   0  0
    0.0000    0.0000    0.0000 C   0  0
    0.0000    0.0000    0.0000 C   0  0
  1  2  1  0
  2  3  2  3
  3  4  1  0
  4  5  1  0
  4  6  1  0
  4  7  1  0
M  END
> <Name>
trans-4,4-dimethyl-2-pentene

> <CAS>
000690-08-4

> <ID Model>
374

> <HOMO>
-9.58

> <D_PathSumFRel>
0

> <G_ClBrI>
0

> <SeaC2C2aa>
0

> <logkOH_EXP>
10.26

> <logkOH PRED>
10.41

> <Hat>
0.01

> <Hat Rif>
0.08

> <smiles>
CC=CC(C)(C)C

> <Mol Id>
374

$$$$
2-decanone
  SciTegic05311115012D

 11 10  0  0  0  0            999 V2000
    0.0000    0.0000    0.0000 C   0  0
    0.0000    0.0000    0.0000 C   0  0
    0.0000    0.0000    0.0000 C   0  0
    0.0000    0.0000    0.0000 C   0  0
    0.0000    0.0000    0.0000 C   0  0
    0.0000    0.0000    0.0000 C   0  0
    0.0000    0.0000    0.0000 C   0  0
    0.0000    0.0000    0.0000 C   0  0
    0.0000    0.0000    0.0000 C   0  0
    0.0000    0.0000    0.0000 C   0  0
    0.0000    0.0000    0.0000 O   0  0
  1  2  1  0
  2  3  1  0
  3  4  1  0
  4  5  1  0
  5  6  1  0
  6  7  1  0
  7  8  1  0
  8  9  1  0
  9 10  1  0
  9 11  2  0
M  END
> <Name>
2-decanone

> <CAS>
000693-54-9

> <ID Model>
376

> <HOMO>
-10.51

> <D_PathSumFRel>
0

> <G_ClBrI>
0

> <SeaC2C2aa>
0

> <logkOH_EXP>
10.88

> <logkOH PRED>
11.03

> <Hat>
0.007

> <Hat Rif>
0.08

> <smiles>
CCCCCCCCC(C)=O

> <Mol Id>
376

$$$$
dipentyl ether
  SciTegic05311115012D

 11 10  0  0  0  0            999 V2000
    0.0000    0.0000    0.0000 C   0  0
    0.0000    0.0000    0.0000 C   0  0
    0.0000    0.0000    0.0000 C   0  0
    0.0000    0.0000    0.0000 C   0  0
    0.0000    0.0000    0.0000 C   0  0
    0.0000    0.0000    0.0000 O   0  0
    0.0000    0.0000    0.0000 C   0  0
    0.0000    0.0000    0.0000 C   0  0
    0.0000    0.0000    0.0000 C   0  0
    0.0000    0.0000    0.0000 C   0  0
    0.0000    0.0000    0.0000 C   0  0
  1  2  1  0
  2  3  1  0
  3  4  1  0
  4  5  1  0
  5  6  1  0
  6  7  1  0
  7  8  1  0
  8  9  1  0
  9 10  1  0
 10 11  1  0
M  END
> <Name>
dipentyl ether

> <CAS>
000693-65-2

> <ID Model>
377

> <HOMO>
-10.39

> <D_PathSumFRel>
0

> <G_ClBrI>
0

> <SeaC2C2aa>
0

> <logkOH_EXP>
10.46

> <logkOH PRED>
10.95

> <Hat>
0.007

> <Hat Rif>
0.08

> <smiles>
CCCCCOCCCCC

> <Mol Id>
377

$$$$
2-methyl-1-pentene
  SciTegic05311115012D

  6  5  0  0  0  0            999 V2000
    0.0000    0.0000    0.0000 C   0  0
    0.0000    0.0000    0.0000 C   0  0
    0.0000    0.0000    0.0000 C   0  0
    0.0000    0.0000    0.0000 C   0  0
    0.0000    0.0000    0.0000 C   0  0
    0.0000    0.0000    0.0000 C   0  0
  1  2  1  0
  2  3  1  0
  3  4  1  0
  4  5  1  0
  4  6  2  0
M  END
> <Name>
2-methyl-1-pentene

> <CAS>
000763-29-1

> <ID Model>
379

> <HOMO>
-9.51

> <D_PathSumFRel>
0

> <G_ClBrI>
0

> <SeaC2C2aa>
0

> <logkOH_EXP>
10.2

> <logkOH PRED>
10.36

> <Hat>
0.011

> <Hat Rif>
0.08

> <smiles>
CCCC(C)=C

> <Mol Id>
379

$$$$
2-methyl-1,4,-pentadiene
  SciTegic05311115012D

  6  5  0  0  0  0            999 V2000
    0.0000    0.0000    0.0000 C   0  0
    0.0000    0.0000    0.0000 C   0  0
    0.0000    0.0000    0.0000 C   0  0
    0.0000    0.0000    0.0000 C   0  0
    0.0000    0.0000    0.0000 C   0  0
    0.0000    0.0000    0.0000 C   0  0
  1  2  1  0
  2  3  2  0
  2  4  1  0
  4  5  1  0
  5  6  2  0
M  END
> <Name>
2-methyl-1,4,-pentadiene

> <CAS>
000763-30-4

> <ID Model>
380

> <HOMO>
-9.43

> <D_PathSumFRel>
0

> <G_ClBrI>
0

> <SeaC2C2aa>
0

> <logkOH_EXP>
10.1

> <logkOH PRED>
10.31

> <Hat>
0.012

> <Hat Rif>
0.08

> <smiles>
CC(=C)CC=C

> <Mol Id>
380

$$$$
2,5-dimethyl-2,4-hexadiene
  SciTegic05311115012D

  8  7  0  0  0  0            999 V2000
    0.0000    0.0000    0.0000 C   0  0
    0.0000    0.0000    0.0000 C   0  0
    0.0000    0.0000    0.0000 C   0  0
    0.0000    0.0000    0.0000 C   0  0
    0.0000    0.0000    0.0000 C   0  0
    0.0000    0.0000    0.0000 C   0  0
    0.0000    0.0000    0.0000 C   0  0
    0.0000    0.0000    0.0000 C   0  0
  1  2  1  0
  2  3  1  0
  2  4  1  0
  4  5  1  0
  5  6  1  0
  6  7  1  0
  6  8  1  0
M  END
> <Name>
2,5-dimethyl-2,4-hexadiene

> <CAS>
000764-13-6

> <ID Model>
381

> <HOMO>
-8.43

> <D_PathSumFRel>
0

> <G_ClBrI>
0

> <SeaC2C2aa>
0

> <logkOH_EXP>
9.68

> <logkOH PRED>
9.63

> <Hat>
0.032

> <Hat Rif>
0.08

> <smiles>
CC(C)CCC(C)C

> <Mol Id>
381

$$$$
1,1,1,2-tetrafluoroethane
  SciTegic05311115012D

  6  5  0  0  0  0            999 V2000
    0.0000    0.0000    0.0000 F   0  0
    0.0000    0.0000    0.0000 C   0  0
    0.0000    0.0000    0.0000 C   0  0
    0.0000    0.0000    0.0000 F   0  0
    0.0000    0.0000    0.0000 F   0  0
    0.0000    0.0000    0.0000 F   0  0
  1  2  1  0
  2  3  1  0
  3  4  1  0
  3  5  1  0
  3  6  1  0
M  END
> <Name>
1,1,1,2-tetrafluoroethane

> <CAS>
000811-97-2

> <ID Model>
382

> <HOMO>
-12.63

> <D_PathSumFRel>
1.5

> <G_ClBrI>
0

> <SeaC2C2aa>
0

> <logkOH_EXP>
14.05

> <logkOH PRED>
14.59

> <Hat>
0.196*

> <Hat Rif>
0.08

> <smiles>
FCC(F)(F)F

> <Mol Id>
382

$$$$
sec-butyl nitrite
  SciTegic05311115012D

  8  7  0  0  0  0            999 V2000
    0.0000    0.0000    0.0000 C   0  0
    0.0000    0.0000    0.0000 C   0  0
    0.0000    0.0000    0.0000 C   0  0
    0.0000    0.0000    0.0000 H   0  0
    0.0000    0.0000    0.0000 C   0  0
    0.0000    0.0000    0.0000 O   0  0
    0.0000    0.0000    0.0000 N   0  0
    0.0000    0.0000    0.0000 O   0  0
  1  2  1  0
  2  3  1  0
  3  4  1  0
  3  5  1  0
  3  6  1  0
  6  7  1  0
  7  8  2  0
M  END
> <Name>
sec-butyl nitrite

> <CAS>
000924-43-6

> <ID Model>
387

> <HOMO>
-11.01

> <D_PathSumFRel>
0

> <G_ClBrI>
0

> <SeaC2C2aa>
0

> <logkOH_EXP>
11.22

> <logkOH PRED>
11.37

> <Hat>
0.011

> <Hat Rif>
0.08

> <smiles>
CC[C@H](C)ON=O

> <Mol Id>
387

$$$$
2,2-dimethylpropyl nitrate
  SciTegic05311115012D

  9  8  0  0  0  0            999 V2000
    0.0000    0.0000    0.0000 C   0  0
    0.0000    0.0000    0.0000 C   0  0
    0.0000    0.0000    0.0000 C   0  0
    0.0000    0.0000    0.0000 C   0  0
    0.0000    0.0000    0.0000 C   0  0
    0.0000    0.0000    0.0000 O   0  0
    0.0000    0.0000    0.0000 N   0  0
    0.0000    0.0000    0.0000 O   0  0
    0.0000    0.0000    0.0000 O   0  0
  1  2  1  0
  2  3  1  0
  2  4  1  0
  2  5  1  0
  5  6  1  0
  6  7  1  0
  7  8  1  0
  7  9  1  0
M  END
> <Name>
2,2-dimethylpropyl nitrate

> <CAS>
000926-42-1

> <ID Model>
388

> <HOMO>
-12.09

> <D_PathSumFRel>
0

> <G_ClBrI>
0

> <SeaC2C2aa>
0

> <logkOH_EXP>
12.07

> <logkOH PRED>
12.1

> <Hat>
0.031

> <Hat Rif>
0.08

> <smiles>
CC(C)(C)CON(O)O

> <Mol Id>
388

$$$$
n-butyl nitrate
  SciTegic05311115012D

  8  7  0  0  0  0            999 V2000
    0.0000    0.0000    0.0000 C   0  0
    0.0000    0.0000    0.0000 C   0  0
    0.0000    0.0000    0.0000 C   0  0
    0.0000    0.0000    0.0000 C   0  0
    0.0000    0.0000    0.0000 O   0  0
    0.0000    0.0000    0.0000 N   0  0
    0.0000    0.0000    0.0000 O   0  0
    0.0000    0.0000    0.0000 O   0  0
  1  2  1  0
  2  3  1  0
  3  4  1  0
  4  5  1  0
  5  6  1  0
  6  7  1  0
  6  8  1  0
M  END
> <Name>
n-butyl nitrate

> <CAS>
000928-45-0

> <ID Model>
390

> <HOMO>
-11.83

> <D_PathSumFRel>
0

> <G_ClBrI>
0

> <SeaC2C2aa>
0

> <logkOH_EXP>
11.85

> <logkOH PRED>
11.92

> <Hat>
0.025

> <Hat Rif>
0.08

> <smiles>
CCCCON(O)O

> <Mol Id>
390

$$$$
bicyclo(2,2,2)-2-octene
  SciTegic05311115012D

 10 11  0  0  0  0            999 V2000
    0.0000    0.0000    0.0000 C   0  0
    0.0000    0.0000    0.0000 C   0  0
    0.0000    0.0000    0.0000 C   0  0
    0.0000    0.0000    0.0000 H   0  0
    0.0000    0.0000    0.0000 C   0  0
    0.0000    0.0000    0.0000 C   0  0
    0.0000    0.0000    0.0000 C   0  0
    0.0000    0.0000    0.0000 H   0  0
    0.0000    0.0000    0.0000 C   0  0
    0.0000    0.0000    0.0000 C   0  0
  1  7  1  0
  1  2  1  0
  2  3  1  0
  3  4  1  0
  3 10  1  0
  3  5  1  0
  5  6  1  0
  6  7  1  0
  7  8  1  0
  7  9  1  0
  9 10  2  3
M  END
> <Name>
bicyclo(2,2,2)-2-octene

> <CAS>
000931-64-6

> <ID Model>
392

> <HOMO>
-9.72

> <D_PathSumFRel>
0

> <G_ClBrI>
0

> <SeaC2C2aa>
0

> <logkOH_EXP>
10.39

> <logkOH PRED>
10.5

> <Hat>
0.009

> <Hat Rif>
0.08

> <smiles>
C1C[C@H]2CC[C@@H]1C=C2

> <Mol Id>
392

$$$$
2,3,5-trimethylhexane
  SciTegic05311115012D

 10  9  0  0  0  0            999 V2000
    0.0000    0.0000    0.0000 C   0  0
    0.0000    0.0000    0.0000 C   0  0
    0.0000    0.0000    0.0000 C   0  0
    0.0000    0.0000    0.0000 C   0  0
    0.0000    0.0000    0.0000 C   0  0
    0.0000    0.0000    0.0000 H   0  0
    0.0000    0.0000    0.0000 C   0  0
    0.0000    0.0000    0.0000 C   0  0
    0.0000    0.0000    0.0000 C   0  0
    0.0000    0.0000    0.0000 C   0  0
  1  2  1  0
  2  3  1  0
  2  4  1  0
  4  5  1  0
  5  6  1  0
  5  7  1  0
  5  8  1  0
  8  9  1  0
  8 10  1  0
M  END
> <Name>
2,3,5-trimethylhexane

> <CAS>
001069-53-0

> <ID Model>
394

> <HOMO>
-10.88

> <D_PathSumFRel>
0

> <G_ClBrI>
0

> <SeaC2C2aa>
0

> <logkOH_EXP>
11.1

> <logkOH PRED>
11.28

> <Hat>
0.009

> <Hat Rif>
0.08

> <smiles>
CC(C)C[C@H](C)C(C)C

> <Mol Id>
394

$$$$
n-undecane
  SciTegic05311115012D

 11 10  0  0  0  0            999 V2000
    0.0000    0.0000    0.0000 C   0  0
    0.0000    0.0000    0.0000 C   0  0
    0.0000    0.0000    0.0000 C   0  0
    0.0000    0.0000    0.0000 C   0  0
    0.0000    0.0000    0.0000 C   0  0
    0.0000    0.0000    0.0000 C   0  0
    0.0000    0.0000    0.0000 C   0  0
    0.0000    0.0000    0.0000 C   0  0
    0.0000    0.0000    0.0000 C   0  0
    0.0000    0.0000    0.0000 C   0  0
    0.0000    0.0000    0.0000 C   0  0
  1  2  1  0
  2  3  1  0
  3  4  1  0
  4  5  1  0
  5  6  1  0
  6  7  1  0
  7  8  1  0
  8  9  1  0
  9 10  1  0
 10 11  1  0
M  END
> <Name>
n-undecane

> <CAS>
001120-21-4

> <ID Model>
395

> <HOMO>
-11.06

> <D_PathSumFRel>
0

> <G_ClBrI>
0

> <SeaC2C2aa>
0

> <logkOH_EXP>
11.88

> <logkOH PRED>
11.4

> <Hat>
0.011

> <Hat Rif>
0.08

> <smiles>
CCCCCCCCCCC

> <Mol Id>
395

$$$$
4-methyl-1,3-dioxane
  SciTegic05311115012D

  8  8  0  0  0  0            999 V2000
    0.0000    0.0000    0.0000 C   0  0
    0.0000    0.0000    0.0000 C   0  0
    0.0000    0.0000    0.0000 H   0  0
    0.0000    0.0000    0.0000 C   0  0
    0.0000    0.0000    0.0000 C   0  0
    0.0000    0.0000    0.0000 O   0  0
    0.0000    0.0000    0.0000 C   0  0
    0.0000    0.0000    0.0000 O   0  0
  1  2  1  0
  2  3  1  0
  2  8  1  0
  2  4  1  0
  4  5  1  0
  5  6  1  0
  6  7  1  0
  7  8  1  0
M  END
> <Name>
4-methyl-1,3-dioxane

> <CAS>
001120-97-4

> <ID Model>
396

> <HOMO>
-10.61

> <D_PathSumFRel>
0

> <G_ClBrI>
0

> <SeaC2C2aa>
0

> <logkOH_EXP>
10.95

> <logkOH PRED>
11.1

> <Hat>
0.008

> <Hat Rif>
0.08

> <smiles>
C[C@@H]1CCOCO1

> <Mol Id>
396

$$$$
tert-butyl methyl ether
  SciTegic05311115012D

  6  5  0  0  0  0            999 V2000
    0.0000    0.0000    0.0000 C   0  0
    0.0000    0.0000    0.0000 O   0  0
    0.0000    0.0000    0.0000 C   0  0
    0.0000    0.0000    0.0000 C   0  0
    0.0000    0.0000    0.0000 C   0  0
    0.0000    0.0000    0.0000 C   0  0
  1  2  1  0
  2  3  1  0
  3  4  1  0
  3  5  1  0
  3  6  1  0
M  END
> <Name>
tert-butyl methyl ether

> <CAS>
001634-04-4

> <ID Model>
399

> <HOMO>
-10.43

> <D_PathSumFRel>
0

> <G_ClBrI>
0

> <SeaC2C2aa>
0

> <logkOH_EXP>
11.55

> <logkOH PRED>
10.98

> <Hat>
0.007

> <Hat Rif>
0.08

> <smiles>
COC(C)(C)C

> <Mol Id>
399

$$$$
2-propyl nitrate
  SciTegic05311115012D

  7  6  0  0  0  0            999 V2000
    0.0000    0.0000    0.0000 C   0  0
    0.0000    0.0000    0.0000 C   0  0
    0.0000    0.0000    0.0000 C   0  0
    0.0000    0.0000    0.0000 O   0  0
    0.0000    0.0000    0.0000 N   0  0
    0.0000    0.0000    0.0000 O   0  0
    0.0000    0.0000    0.0000 O   0  0
  1  2  1  0
  2  3  1  0
  2  4  1  0
  4  5  1  0
  5  6  1  0
  5  7  1  0
M  END
> <Name>
2-propyl nitrate

> <CAS>
001712-64-7

> <ID Model>
401

> <HOMO>
-12.24

> <D_PathSumFRel>
0

> <G_ClBrI>
0

> <SeaC2C2aa>
0

> <logkOH_EXP>
12.75

> <logkOH PRED>
12.2

> <Hat>
0.035

> <Hat Rif>
0.08

> <smiles>
CC(C)ON(O)O

> <Mol Id>
401

$$$$
1,4-dichloronaphthalene
  SciTegic05311115012D

 12 13  0  0  0  0            999 V2000
    0.0000    0.0000    0.0000 Cl  0  0
    0.0000    0.0000    0.0000 C   0  0
    0.0000    0.0000    0.0000 C   0  0
    0.0000    0.0000    0.0000 C   0  0
    0.0000    0.0000    0.0000 C   0  0
    0.0000    0.0000    0.0000 Cl  0  0
    0.0000    0.0000    0.0000 C   0  0
    0.0000    0.0000    0.0000 C   0  0
    0.0000    0.0000    0.0000 C   0  0
    0.0000    0.0000    0.0000 C   0  0
    0.0000    0.0000    0.0000 C   0  0
    0.0000    0.0000    0.0000 C   0  0
  1  2  1  0
  2  8  1  0
  2  3  2  3
  3  4  1  0
  4  5  2  3
  5  6  1  0
  5  7  1  0
  7 12  1  0
  7  8  2  3
  8  9  1  0
  9 10  2  3
 10 11  1  0
 11 12  2  3
M  END
> <Name>
1,4-dichloronaphthalene

> <CAS>
001825-31-6

> <ID Model>
402

> <HOMO>
-8.84

> <D_PathSumFRel>
0

> <G_ClBrI>
2

> <SeaC2C2aa>
11.10447

> <logkOH_EXP>
11.24

> <logkOH PRED>
11.42

> <Hat>
0.07

> <Hat Rif>
0.08

> <smiles>
ClC1=CC=C(Cl)C2=C1C=CC=C2

> <Mol Id>
402

$$$$
o-chlorobiphenyl
  SciTegic05311115012D

 13 14  0  0  0  0            999 V2000
    0.0000    0.0000    0.0000 Cl  0  0
    0.0000    0.0000    0.0000 C   0  0
    0.0000    0.0000    0.0000 C   0  0
    0.0000    0.0000    0.0000 C   0  0
    0.0000    0.0000    0.0000 C   0  0
    0.0000    0.0000    0.0000 C   0  0
    0.0000    0.0000    0.0000 C   0  0
    0.0000    0.0000    0.0000 C   0  0
    0.0000    0.0000    0.0000 C   0  0
    0.0000    0.0000    0.0000 C   0  0
    0.0000    0.0000    0.0000 C   0  0
    0.0000    0.0000    0.0000 C   0  0
    0.0000    0.0000    0.0000 C   0  0
  1  2  1  0
  2  7  1  0
  2  3  2  3
  3  4  1  0
  3  8  1  0
  4  5  2  3
  5  6  1  0
  6  7  2  3
  8 13  1  0
  8  9  2  3
  9 10  1  0
 10 11  2  3
 11 12  1  0
 12 13  2  3
M  END
> <Name>
o-chlorobiphenyl

> <CAS>
002051-60-7

> <ID Model>
406

> <HOMO>
-9.26

> <D_PathSumFRel>
0

> <G_ClBrI>
1

> <SeaC2C2aa>
20.36159

> <logkOH_EXP>
11.55

> <logkOH PRED>
11.87

> <Hat>
0.106*

> <Hat Rif>
0.08

> <smiles>
ClC1=C(C=CC=C1)C1=CC=CC=C1

> <Mol Id>
406

$$$$
m-chlorobiphenyl
  SciTegic05311115012D

 13 14  0  0  0  0            999 V2000
    0.0000    0.0000    0.0000 Cl  0  0
    0.0000    0.0000    0.0000 C   0  0
    0.0000    0.0000    0.0000 C   0  0
    0.0000    0.0000    0.0000 C   0  0
    0.0000    0.0000    0.0000 C   0  0
    0.0000    0.0000    0.0000 C   0  0
    0.0000    0.0000    0.0000 C   0  0
    0.0000    0.0000    0.0000 C   0  0
    0.0000    0.0000    0.0000 C   0  0
    0.0000    0.0000    0.0000 C   0  0
    0.0000    0.0000    0.0000 C   0  0
    0.0000    0.0000    0.0000 C   0  0
    0.0000    0.0000    0.0000 C   0  0
  1  2  1  0
  2  7  1  0
  2  3  2  3
  3  4  1  0
  4  5  2  3
  5  6  1  0
  6  7  2  3
  6  8  1  0
  8 13  1  0
  8  9  2  3
  9 10  1  0
 10 11  2  3
 11 12  1  0
 12 13  2  3
M  END
> <Name>
m-chlorobiphenyl

> <CAS>
002051-61-8

> <ID Model>
407

> <HOMO>
-9.22

> <D_PathSumFRel>
0

> <G_ClBrI>
1

> <SeaC2C2aa>
17.54042

> <logkOH_EXP>
11.28

> <logkOH PRED>
11.67

> <Hat>
0.078

> <Hat Rif>
0.08

> <smiles>
ClC1=CC=CC(=C1)C1=CC=CC=C1

> <Mol Id>
407

$$$$
cyclohexyl nitrate
  SciTegic05311115012D

  9  9  0  0  0  0            999 V2000
    0.0000    0.0000    0.0000 O   0  0
    0.0000    0.0000    0.0000 N   0  0
    0.0000    0.0000    0.0000 O   0  0
    0.0000    0.0000    0.0000 C   0  0
    0.0000    0.0000    0.0000 C   0  0
    0.0000    0.0000    0.0000 C   0  0
    0.0000    0.0000    0.0000 C   0  0
    0.0000    0.0000    0.0000 C   0  0
    0.0000    0.0000    0.0000 C   0  0
  1  2  1  0
  2  3  1  0
  2  4  1  0
  4  9  1  0
  4  5  1  0
  5  6  1  0
  6  7  1  0
  7  8  1  0
  8  9  1  0
M  END
> <Name>
cyclohexyl nitrate

> <CAS>
002108-66-9

> <ID Model>
409

> <HOMO>
-11.34

> <D_PathSumFRel>
0

> <G_ClBrI>
0

> <SeaC2C2aa>
0

> <logkOH_EXP>
11.48

> <logkOH PRED>
11.59

> <Hat>
0.015

> <Hat Rif>
0.08

> <smiles>
ON(O)C1CCCCC1

> <Mol Id>
409

$$$$
3-methoxy-1-butanol
  SciTegic05311115012D

  8  7  0  0  0  0            999 V2000
    0.0000    0.0000    0.0000 C   0  0
    0.0000    0.0000    0.0000 O   0  0
    0.0000    0.0000    0.0000 C   0  0
    0.0000    0.0000    0.0000 H   0  0
    0.0000    0.0000    0.0000 C   0  0
    0.0000    0.0000    0.0000 C   0  0
    0.0000    0.0000    0.0000 C   0  0
    0.0000    0.0000    0.0000 O   0  0
  1  2  1  0
  2  3  1  0
  3  4  1  0
  3  5  1  0
  3  6  1  0
  6  7  1  0
  7  8  1  0
M  END
> <Name>
3-methoxy-1-butanol

> <CAS>
002517-43-3

> <ID Model>
412

> <HOMO>
-10.58

> <D_PathSumFRel>
0

> <G_ClBrI>
0

> <SeaC2C2aa>
0

> <logkOH_EXP>
10.63

> <logkOH PRED>
11.08

> <Hat>
0.007

> <Hat Rif>
0.08

> <smiles>
CO[C@@H](C)CCO

> <Mol Id>
412

$$$$
cis-1,3,5-hexatriene
  SciTegic05311115012D

  6  5  0  0  0  0            999 V2000
    0.0000    0.0000    0.0000 C   0  0
    0.0000    0.0000    0.0000 C   0  0
    0.0000    0.0000    0.0000 C   0  0
    0.0000    0.0000    0.0000 C   0  0
    0.0000    0.0000    0.0000 C   0  0
    0.0000    0.0000    0.0000 C   0  0
  1  2  2  0
  2  3  1  0
  3  4  2  3
  4  5  1  0
  5  6  2  0
M  END
> <Name>
cis-1,3,5-hexatriene

> <CAS>
002612-46-6

> <ID Model>
413

> <HOMO>
-8.76

> <D_PathSumFRel>
0

> <G_ClBrI>
0

> <SeaC2C2aa>
0

> <logkOH_EXP>
9.96

> <logkOH PRED>
9.85

> <Hat>
0.024

> <Hat Rif>
0.08

> <smiles>
C=C\C=C/C=C

> <Mol Id>
413

$$$$
O,O,S-trimethyl phosphorodithioate
  SciTegic05311115012D

  8  7  0  0  0  0            999 V2000
    0.0000    0.0000    0.0000 C   0  0
    0.0000    0.0000    0.0000 O   0  0
    0.0000    0.0000    0.0000 P   0  0
    0.0000    0.0000    0.0000 S   0  0
    0.0000    0.0000    0.0000 O   0  0
    0.0000    0.0000    0.0000 C   0  0
    0.0000    0.0000    0.0000 S   0  0
    0.0000    0.0000    0.0000 C   0  0
  1  2  1  0
  2  3  1  0
  3  4  2  0
  3  5  1  0
  3  7  1  0
  5  6  1  0
  7  8  1  0
M  END
> <Name>
O,O,S-trimethyl phosphorodithioate

> <CAS>
002953-29-9

> <ID Model>
415

> <HOMO>
-9.98

> <D_PathSumFRel>
0

> <G_ClBrI>
0

> <SeaC2C2aa>
0

> <logkOH_EXP>
10.25

> <logkOH PRED>
10.68

> <Hat>
0.007

> <Hat Rif>
0.08

> <smiles>
COP(=S)(OC)SC

> <Mol Id>
415

$$$$
1,1,3-trimethylcyclohexane
  SciTegic05311115012D

 10 10  0  0  0  0            999 V2000
    0.0000    0.0000    0.0000 C   0  0
    0.0000    0.0000    0.0000 C   0  0
    0.0000    0.0000    0.0000 H   0  0
    0.0000    0.0000    0.0000 C   0  0
    0.0000    0.0000    0.0000 C   0  0
    0.0000    0.0000    0.0000 C   0  0
    0.0000    0.0000    0.0000 C   0  0
    0.0000    0.0000    0.0000 C   0  0
    0.0000    0.0000    0.0000 C   0  0
    0.0000    0.0000    0.0000 C   0  0
  1  2  1  0
  2  3  1  0
  2 10  1  0
  2  4  1  0
  4  5  1  0
  5  6  1  0
  6  7  1  0
  7  8  1  0
  7  9  1  0
  7 10  1  0
M  END
> <Name>
1,1,3-trimethylcyclohexane

> <CAS>
003073-66-3

> <ID Model>
417

> <HOMO>
-10.74

> <D_PathSumFRel>
0

> <G_ClBrI>
0

> <SeaC2C2aa>
0

> <logkOH_EXP>
11.06

> <logkOH PRED>
11.19

> <Hat>
0.008

> <Hat Rif>
0.08

> <smiles>
C[C@H]1CCCC(C)(C)C1

> <Mol Id>
417

$$$$
2-methyloctane
  SciTegic05311115012D

  9  8  0  0  0  0            999 V2000
    0.0000    0.0000    0.0000 C   0  0
    0.0000    0.0000    0.0000 C   0  0
    0.0000    0.0000    0.0000 C   0  0
    0.0000    0.0000    0.0000 C   0  0
    0.0000    0.0000    0.0000 C   0  0
    0.0000    0.0000    0.0000 C   0  0
    0.0000    0.0000    0.0000 C   0  0
    0.0000    0.0000    0.0000 C   0  0
    0.0000    0.0000    0.0000 C   0  0
  1  2  1  0
  2  3  1  0
  3  4  1  0
  4  5  1  0
  5  6  1  0
  6  7  1  0
  7  8  1  0
  7  9  1  0
M  END
> <Name>
2-methyloctane

> <CAS>
003221-61-2

> <ID Model>
418

> <HOMO>
-11.04

> <D_PathSumFRel>
0

> <G_ClBrI>
0

> <SeaC2C2aa>
0

> <logkOH_EXP>
11

> <logkOH PRED>
11.39

> <Hat>
0.011

> <Hat Rif>
0.08

> <smiles>
CCCCCCC(C)C

> <Mol Id>
418

$$$$
isopropil-ciclopropane
  SciTegic05311115012D

  6  6  0  0  0  0            999 V2000
    0.0000    0.0000    0.0000 C   0  0
    0.0000    0.0000    0.0000 C   0  0
    0.0000    0.0000    0.0000 C   0  0
    0.0000    0.0000    0.0000 C   0  0
    0.0000    0.0000    0.0000 C   0  0
    0.0000    0.0000    0.0000 C   0  0
  1  2  1  0
  2  3  1  0
  2  4  1  0
  4  6  1  0
  4  5  1  0
  5  6  1  0
M  END
> <Name>
isopropil-ciclopropane

> <CAS>
003638-35-5

> <ID Model>
421

> <HOMO>
-10.67

> <D_PathSumFRel>
0

> <G_ClBrI>
0

> <SeaC2C2aa>
0

> <logkOH_EXP>
11.55

> <logkOH PRED>
11.14

> <Hat>
0.008

> <Hat Rif>
0.08

> <smiles>
CC(C)C1CC1

> <Mol Id>
421

$$$$
trans - ocimene
  SciTegic05311115012D

 10  9  0  0  0  0            999 V2000
    0.0000    0.0000    0.0000 C   0  0
    0.0000    0.0000    0.0000 C   0  0
    0.0000    0.0000    0.0000 C   0  0
    0.0000    0.0000    0.0000 C   0  0
    0.0000    0.0000    0.0000 C   0  0
    0.0000    0.0000    0.0000 C   0  0
    0.0000    0.0000    0.0000 C   0  0
    0.0000    0.0000    0.0000 C   0  0
    0.0000    0.0000    0.0000 C   0  0
    0.0000    0.0000    0.0000 C   0  0
  1  2  1  0
  2  3  2  0
  2  4  1  0
  4  5  1  0
  5  6  1  0
  6  7  2  3
  7  8  1  0
  7  9  1  0
  9 10  2  0
M  END
> <Name>
trans - ocimene

> <CAS>
003779-61-1

> <ID Model>
423

> <HOMO>
-8.98

> <D_PathSumFRel>
0

> <G_ClBrI>
0

> <SeaC2C2aa>
0

> <logkOH_EXP>
9.6

> <logkOH PRED>
10

> <Hat>
0.019

> <Hat Rif>
0.08

> <smiles>
CC(=C)CCC=C(C)C=C

> <Mol Id>
423

$$$$
2-methyl-1,5-hexadiene
  SciTegic05311115012D

  7  6  0  0  0  0            999 V2000
    0.0000    0.0000    0.0000 C   0  0
    0.0000    0.0000    0.0000 C   0  0
    0.0000    0.0000    0.0000 C   0  0
    0.0000    0.0000    0.0000 C   0  0
    0.0000    0.0000    0.0000 C   0  0
    0.0000    0.0000    0.0000 C   0  0
    0.0000    0.0000    0.0000 C   0  0
  1  2  1  0
  2  3  2  0
  2  4  1  0
  4  5  1  0
  5  6  1  0
  6  7  2  0
M  END
> <Name>
2-methyl-1,5-hexadiene

> <CAS>
004049-81-4

> <ID Model>
424

> <HOMO>
-9.7

> <D_PathSumFRel>
0

> <G_ClBrI>
0

> <SeaC2C2aa>
0

> <logkOH_EXP>
10.02

> <logkOH PRED>
10.49

> <Hat>
0.009

> <Hat Rif>
0.08

> <smiles>
CC(=C)CCC=C

> <Mol Id>
424

$$$$
dimethyl-nitramine
  SciTegic05311115012D

  6  5  0  0  0  0            999 V2000
    0.0000    0.0000    0.0000 C   0  0
    0.0000    0.0000    0.0000 N   0  0
    0.0000    0.0000    0.0000 C   0  0
    0.0000    0.0000    0.0000 N   0  0
    0.0000    0.0000    0.0000 O   0  0
    0.0000    0.0000    0.0000 O   0  0
  1  2  1  0
  2  3  1  0
  2  4  1  0
  4  5  1  0
  4  6  1  0
M  END
> <Name>
dimethyl-nitramine

> <CAS>
004164-28-7

> <ID Model>
426

> <HOMO>
-10.78

> <D_PathSumFRel>
0

> <G_ClBrI>
0

> <SeaC2C2aa>
0

> <logkOH_EXP>
11.42

> <logkOH PRED>
11.22

> <Hat>
0.009

> <Hat Rif>
0.08

> <smiles>
CN(C)N(O)O

> <Mol Id>
426

$$$$
3-methyl-1,3-pentadiene
  SciTegic05311115012D

  6  5  0  0  0  0            999 V2000
    0.0000    0.0000    0.0000 C   0  0
    0.0000    0.0000    0.0000 C   0  0
    0.0000    0.0000    0.0000 C   0  0
    0.0000    0.0000    0.0000 C   0  0
    0.0000    0.0000    0.0000 C   0  0
    0.0000    0.0000    0.0000 C   0  0
  1  2  1  0
  2  3  2  3
  3  4  1  0
  3  5  1  0
  5  6  2  0
M  END
> <Name>
3-methyl-1,3-pentadiene

> <CAS>
004549-74-0

> <ID Model>
427

> <HOMO>
-8.86

> <D_PathSumFRel>
0

> <G_ClBrI>
0

> <SeaC2C2aa>
0

> <logkOH_EXP>
9.87

> <logkOH PRED>
9.92

> <Hat>
0.022

> <Hat Rif>
0.08

> <smiles>
CC=C(C)C=C

> <Mol Id>
427

$$$$
cis-bicyclo(4,3,0)-nonane
  SciTegic05311115012D

 11 12  0  0  0  0            999 V2000
    0.0000    0.0000    0.0000 C   0  0
    0.0000    0.0000    0.0000 C   0  0
    0.0000    0.0000    0.0000 C   0  0
    0.0000    0.0000    0.0000 H   0  0
    0.0000    0.0000    0.0000 C   0  0
    0.0000    0.0000    0.0000 C   0  0
    0.0000    0.0000    0.0000 C   0  0
    0.0000    0.0000    0.0000 C   0  0
    0.0000    0.0000    0.0000 C   0  0
    0.0000    0.0000    0.0000 H   0  0
    0.0000    0.0000    0.0000 C   0  0
  1 11  1  0
  1  2  1  0
  2  3  1  0
  3  4  1  0
  3  9  1  0
  3  5  1  0
  5  6  1  0
  6  7  1  0
  7  8  1  0
  8  9  1  0
  9 10  1  0
  9 11  1  0
M  END
> <Name>
cis-bicyclo(4,3,0)-nonane

> <CAS>
004551-51-3

> <ID Model>
428

> <HOMO>
-10.54

> <D_PathSumFRel>
0

> <G_ClBrI>
0

> <SeaC2C2aa>
0

> <logkOH_EXP>
10.76

> <logkOH PRED>
11.05

> <Hat>
0.007

> <Hat Rif>
0.08

> <smiles>
C1C[C@H]2CCCC[C@H]2C1

> <Mol Id>
428

$$$$
trans-trans-2,4-hexadiene
  SciTegic05311115012D

  6  5  0  0  0  0            999 V2000
    0.0000    0.0000    0.0000 C   0  0
    0.0000    0.0000    0.0000 C   0  0
    0.0000    0.0000    0.0000 C   0  0
    0.0000    0.0000    0.0000 C   0  0
    0.0000    0.0000    0.0000 C   0  0
    0.0000    0.0000    0.0000 C   0  0
  1  2  1  0
  2  3  2  3
  3  4  1  0
  4  5  2  3
  5  6  1  0
M  END
> <Name>
trans-trans-2,4-hexadiene

> <CAS>
005194-51-4

> <ID Model>
429

> <HOMO>
-8.78

> <D_PathSumFRel>
0

> <G_ClBrI>
0

> <SeaC2C2aa>
0

> <logkOH_EXP>
9.87

> <logkOH PRED>
9.87

> <Hat>
0.023

> <Hat Rif>
0.08

> <smiles>
CC=CC=CC

> <Mol Id>
429

$$$$
methylketene
  SciTegic05311115012D

  4  3  0  0  0  0            999 V2000
    0.0000    0.0000    0.0000 C   0  0
    0.0000    0.0000    0.0000 C   0  0
    0.0000    0.0000    0.0000 C   0  0
    0.0000    0.0000    0.0000 O   0  0
  1  2  1  0
  2  3  2  0
  3  4  2  0
M  END
> <Name>
methylketene

> <CAS>
006004-44-0

> <ID Model>
432

> <HOMO>
-9.2

> <D_PathSumFRel>
0

> <G_ClBrI>
0

> <SeaC2C2aa>
0

> <logkOH_EXP>
10.16

> <logkOH PRED>
10.15

> <Hat>
0.015

> <Hat Rif>
0.08

> <smiles>
CC=C=O

> <Mol Id>
432

$$$$
2-pentanol
  SciTegic05311115012D

  7  6  0  0  0  0            999 V2000
    0.0000    0.0000    0.0000 C   0  0
    0.0000    0.0000    0.0000 C   0  0
    0.0000    0.0000    0.0000 C   0  0
    0.0000    0.0000    0.0000 C   0  0
    0.0000    0.0000    0.0000 H   0  0
    0.0000    0.0000    0.0000 C   0  0
    0.0000    0.0000    0.0000 O   0  0
  1  2  1  0
  2  3  1  0
  3  4  1  0
  4  5  1  0
  4  6  1  0
  4  7  1  0
M  END
> <Name>
2-pentanol

> <CAS>
006032-29-7

> <ID Model>
433

> <HOMO>
-10.89

> <D_PathSumFRel>
0

> <G_ClBrI>
0

> <SeaC2C2aa>
0

> <logkOH_EXP>
10.93

> <logkOH PRED>
11.29

> <Hat>
0.01

> <Hat Rif>
0.08

> <smiles>
CCC[C@@H](C)O

> <Mol Id>
433

$$$$
trans-1,4-hexadiene
  SciTegic05311115012D

  6  5  0  0  0  0            999 V2000
    0.0000    0.0000    0.0000 C   0  0
    0.0000    0.0000    0.0000 C   0  0
    0.0000    0.0000    0.0000 C   0  0
    0.0000    0.0000    0.0000 C   0  0
    0.0000    0.0000    0.0000 C   0  0
    0.0000    0.0000    0.0000 C   0  0
  1  2  1  0
  2  3  2  3
  3  4  1  0
  4  5  1  0
  5  6  2  0
M  END
> <Name>
trans-1,4-hexadiene

> <CAS>
007319-00-8

> <ID Model>
434

> <HOMO>
-9.43

> <D_PathSumFRel>
0

> <G_ClBrI>
0

> <SeaC2C2aa>
0

> <logkOH_EXP>
10.04

> <logkOH PRED>
10.31

> <Hat>
0.012

> <Hat Rif>
0.08

> <smiles>
CC=CCC=C

> <Mol Id>
434

$$$$
1,2-dimethoxypropane
  SciTegic05311115012D

  8  7  0  0  0  0            999 V2000
    0.0000    0.0000    0.0000 C   0  0
    0.0000    0.0000    0.0000 O   0  0
    0.0000    0.0000    0.0000 C   0  0
    0.0000    0.0000    0.0000 C   0  0
    0.0000    0.0000    0.0000 H   0  0
    0.0000    0.0000    0.0000 C   0  0
    0.0000    0.0000    0.0000 O   0  0
    0.0000    0.0000    0.0000 C   0  0
  1  2  1  0
  2  3  1  0
  3  4  1  0
  4  5  1  0
  4  6  1  0
  4  7  1  0
  7  8  1  0
M  END
> <Name>
1,2-dimethoxypropane

> <CAS>
007778-85-0

> <ID Model>
435

> <HOMO>
-10.47

> <D_PathSumFRel>
0

> <G_ClBrI>
0

> <SeaC2C2aa>
0

> <logkOH_EXP>
10.85

> <logkOH PRED>
11.01

> <Hat>
0.007

> <Hat Rif>
0.08

> <smiles>
COC[C@H](C)OC

> <Mol Id>
435

$$$$
cis-1,3-dichloropropene
  SciTegic05311115012D

  9  8  0  0  0  0            999 V2000
    0.0000    0.0000    0.0000 Cl  0  0
    0.0000    0.0000    0.0000 C   0  0
    0.0000    0.0000    0.0000 H   0  0
    0.0000    0.0000    0.0000 H   0  0
    0.0000    0.0000    0.0000 C   0  0
    0.0000    0.0000    0.0000 H   0  0
    0.0000    0.0000    0.0000 C   0  0
    0.0000    0.0000    0.0000 H   0  0
    0.0000    0.0000    0.0000 Cl  0  0
  1  2  1  0
  2  3  1  0
  2  4  1  0
  2  5  1  0
  5  6  1  0
  5  7  2  3
  7  8  1  0
  7  9  1  0
M  END
> <Name>
cis-1,3-dichloropropene

> <CAS>
010061-01-5

> <ID Model>
436

> <HOMO>
-10.18

> <D_PathSumFRel>
0

> <G_ClBrI>
2

> <SeaC2C2aa>
0

> <logkOH_EXP>
11.08

> <logkOH PRED>
11.63

> <Hat>
0.052

> <Hat Rif>
0.08

> <smiles>
[Cl:5][CH2:4]\[CH:1]=[CH:2]/[Cl:3]

> <Mol Id>
436

$$$$
trans-1,3-dichloropropene
  SciTegic05311115012D

  5  4  0  0  0  0            999 V2000
    0.0000    0.0000    0.0000 Cl  0  0
    0.0000    0.0000    0.0000 C   0  0
    0.0000    0.0000    0.0000 C   0  0
    0.0000    0.0000    0.0000 C   0  0
    0.0000    0.0000    0.0000 Cl  0  0
  1  2  1  0
  2  3  1  0
  3  4  2  3
  4  5  1  0
M  END
> <Name>
trans-1,3-dichloropropene

> <CAS>
010061-02-6

> <ID Model>
437

> <HOMO>
-10.18

> <D_PathSumFRel>
0

> <G_ClBrI>
2

> <SeaC2C2aa>
0

> <logkOH_EXP>
10.85

> <logkOH PRED>
11.63

> <Hat>
0.052

> <Hat Rif>
0.08

> <smiles>
ClC\C=C\Cl

> <Mol Id>
437

$$$$
2,3-dimethyl-2-pentene
  SciTegic05311115012D

  7  6  0  0  0  0            999 V2000
    0.0000    0.0000    0.0000 C   0  0
    0.0000    0.0000    0.0000 C   0  0
    0.0000    0.0000    0.0000 C   0  0
    0.0000    0.0000    0.0000 C   0  0
    0.0000    0.0000    0.0000 C   0  0
    0.0000    0.0000    0.0000 C   0  0
    0.0000    0.0000    0.0000 C   0  0
  1  2  1  0
  2  3  1  0
  3  4  1  0
  3  5  2  3
  5  6  1  0
  5  7  1  0
M  END
> <Name>
2,3-dimethyl-2-pentene

> <CAS>
010574-37-5

> <ID Model>
438

> <HOMO>
-8.91

> <D_PathSumFRel>
0

> <G_ClBrI>
0

> <SeaC2C2aa>
0

> <logkOH_EXP>
10.01

> <logkOH PRED>
9.96

> <Hat>
0.021

> <Hat Rif>
0.08

> <smiles>
CC\C(C)=C(\C)C

> <Mol Id>
438

$$$$
trans-2-heptene
  SciTegic05311115012D

  7  6  0  0  0  0            999 V2000
    0.0000    0.0000    0.0000 C   0  0
    0.0000    0.0000    0.0000 C   0  0
    0.0000    0.0000    0.0000 C   0  0
    0.0000    0.0000    0.0000 C   0  0
    0.0000    0.0000    0.0000 C   0  0
    0.0000    0.0000    0.0000 C   0  0
    0.0000    0.0000    0.0000 C   0  0
  1  2  1  0
  2  3  1  0
  3  4  1  0
  4  5  1  0
  5  6  2  3
  6  7  1  0
M  END
> <Name>
trans-2-heptene

> <CAS>
014686-13-6

> <ID Model>
442

> <HOMO>
-9.5

> <D_PathSumFRel>
0

> <G_ClBrI>
0

> <SeaC2C2aa>
0

> <logkOH_EXP>
10.17

> <logkOH PRED>
10.35

> <Hat>
0.011

> <Hat Rif>
0.08

> <smiles>
CCCCC=CC

> <Mol Id>
442

$$$$
ethylketene
  SciTegic05311115012D

  5  4  0  0  0  0            999 V2000
    0.0000    0.0000    0.0000 C   0  0
    0.0000    0.0000    0.0000 C   0  0
    0.0000    0.0000    0.0000 C   0  0
    0.0000    0.0000    0.0000 C   0  0
    0.0000    0.0000    0.0000 O   0  0
  1  2  1  0
  2  3  1  0
  3  4  2  0
  4  5  2  0
M  END
> <Name>
ethylketene

> <CAS>
020334-52-5

> <ID Model>
445

> <HOMO>
-9.17

> <D_PathSumFRel>
0

> <G_ClBrI>
0

> <SeaC2C2aa>
0

> <logkOH_EXP>
9.93

> <logkOH PRED>
10.13

> <Hat>
0.016

> <Hat Rif>
0.08

> <smiles>
CCC=C=O

> <Mol Id>
445

$$$$
2-hexyl nitrate
  SciTegic05311115012D

 11 10  0  0  0  0            999 V2000
    0.0000    0.0000    0.0000 C   0  0
    0.0000    0.0000    0.0000 C   0  0
    0.0000    0.0000    0.0000 C   0  0
    0.0000    0.0000    0.0000 C   0  0
    0.0000    0.0000    0.0000 C   0  0
    0.0000    0.0000    0.0000 H   0  0
    0.0000    0.0000    0.0000 C   0  0
    0.0000    0.0000    0.0000 O   0  0
    0.0000    0.0000    0.0000 N   0  0
    0.0000    0.0000    0.0000 O   0  0
    0.0000    0.0000    0.0000 O   0  0
  1  2  1  0
  2  3  1  0
  3  4  1  0
  4  5  1  0
  5  6  1  0
  5  7  1  0
  5  8  1  0
  8  9  1  0
  9 10  1  0
  9 11  1  0
M  END
> <Name>
2-hexyl nitrate

> <CAS>
021981-49-7

> <ID Model>
447

> <HOMO>
-11.63

> <D_PathSumFRel>
0

> <G_ClBrI>
0

> <SeaC2C2aa>
0

> <logkOH_EXP>
11.5

> <logkOH PRED>
11.79

> <Hat>
0.02

> <Hat Rif>
0.08

> <smiles>
CCCC[C@H](C)ON(O)O

> <Mol Id>
447

$$$$
1,1-dimethoxyethane
  SciTegic05311115012D

  6  5  0  0  0  0            999 V2000
    0.0000    0.0000    0.0000 C   0  0
    0.0000    0.0000    0.0000 O   0  0
    0.0000    0.0000    0.0000 C   0  0
    0.0000    0.0000    0.0000 C   0  0
    0.0000    0.0000    0.0000 O   0  0
    0.0000    0.0000    0.0000 C   0  0
  1  2  1  0
  2  3  1  0
  3  4  1  0
  3  5  1  0
  5  6  1  0
M  END
> <Name>
1,1-dimethoxyethane

> <CAS>
025154-53-4

> <ID Model>
449

> <HOMO>
-10.74

> <D_PathSumFRel>
0

> <G_ClBrI>
0

> <SeaC2C2aa>
0

> <logkOH_EXP>
11.05

> <logkOH PRED>
11.19

> <Hat>
0.008

> <Hat Rif>
0.08

> <smiles>
COC(C)OC

> <Mol Id>
449

$$$$
3-heptyl nitrate
  SciTegic05311115012D

 12 11  0  0  0  0            999 V2000
    0.0000    0.0000    0.0000 C   0  0
    0.0000    0.0000    0.0000 C   0  0
    0.0000    0.0000    0.0000 C   0  0
    0.0000    0.0000    0.0000 C   0  0
    0.0000    0.0000    0.0000 C   0  0
    0.0000    0.0000    0.0000 H   0  0
    0.0000    0.0000    0.0000 C   0  0
    0.0000    0.0000    0.0000 C   0  0
    0.0000    0.0000    0.0000 O   0  0
    0.0000    0.0000    0.0000 N   0  0
    0.0000    0.0000    0.0000 O   0  0
    0.0000    0.0000    0.0000 O   0  0
  1  2  1  0
  2  3  1  0
  3  4  1  0
  4  5  1  0
  5  6  1  0
  5  7  1  0
  5  9  1  0
  7  8  1  0
  9 10  1  0
 10 11  1  0
 10 12  1  0
M  END
> <Name>
3-heptyl nitrate

> <CAS>
082944-61-4

> <ID Model>
454

> <HOMO>
-11.49

> <D_PathSumFRel>
0

> <G_ClBrI>
0

> <SeaC2C2aa>
0

> <logkOH_EXP>
11.43

> <logkOH PRED>
11.69

> <Hat>
0.018

> <Hat Rif>
0.08

> <smiles>
CCCC[C@@H](CC)ON(O)O

> <Mol Id>
454

$$$$
3-methyl-2-butyl nitrate
  SciTegic05311115012D

 10  9  0  0  0  0            999 V2000
    0.0000    0.0000    0.0000 C   0  0
    0.0000    0.0000    0.0000 C   0  0
    0.0000    0.0000    0.0000 C   0  0
    0.0000    0.0000    0.0000 C   0  0
    0.0000    0.0000    0.0000 H   0  0
    0.0000    0.0000    0.0000 C   0  0
    0.0000    0.0000    0.0000 O   0  0
    0.0000    0.0000    0.0000 N   0  0
    0.0000    0.0000    0.0000 O   0  0
    0.0000    0.0000    0.0000 O   0  0
  1  2  1  0
  2  3  1  0
  2  4  1  0
  4  5  1  0
  4  6  1  0
  4  7  1  0
  7  8  1  0
  8  9  1  0
  8 10  1  0
M  END
> <Name>
3-methyl-2-butyl nitrate

> <CAS>
999999-9-2

> <ID Model>
458

> <HOMO>
-11.85

> <D_PathSumFRel>
0

> <G_ClBrI>
0

> <SeaC2C2aa>
0

> <logkOH_EXP>
11.76

> <logkOH PRED>
11.94

> <Hat>
0.025

> <Hat Rif>
0.08

> <smiles>
CC(C)[C@@H](C)ON(O)O

> <Mol Id>
458

$$$$
2-methyl-2-pentyl nitrate
  SciTegic05311115012D

 10  9  0  0  0  0            999 V2000
    0.0000    0.0000    0.0000 C   0  0
    0.0000    0.0000    0.0000 C   0  0
    0.0000    0.0000    0.0000 C   0  0
    0.0000    0.0000    0.0000 C   0  0
    0.0000    0.0000    0.0000 C   0  0
    0.0000    0.0000    0.0000 C   0  0
    0.0000    0.0000    0.0000 O   0  0
    0.0000    0.0000    0.0000 N   0  0
    0.0000    0.0000    0.0000 O   0  0
    0.0000    0.0000    0.0000 O   0  0
  1  2  1  0
  2  3  1  0
  3  4  1  0
  4  5  1  0
  4  6  1  0
  4  7  1  0
  7  8  1  0
  8  9  1  0
  8 10  1  0
M  END
> <Name>
2-methyl-2-pentyl nitrate

> <CAS>
000002-52-6

> <ID Model>
459

> <HOMO>
-11.66

> <D_PathSumFRel>
0

> <G_ClBrI>
0

> <SeaC2C2aa>
0

> <logkOH_EXP>
11.77

> <logkOH PRED>
11.81

> <Hat>
0.021

> <Hat Rif>
0.08

> <smiles>
CCCC(C)(C)ON(O)O

> <Mol Id>
459

$$$$
3-methyl-2-pentyl nitrate
  SciTegic05311115012D

 12 11  0  0  0  0            999 V2000
    0.0000    0.0000    0.0000 C   0  0
    0.0000    0.0000    0.0000 C   0  0
    0.0000    0.0000    0.0000 C   0  0
    0.0000    0.0000    0.0000 H   0  0
    0.0000    0.0000    0.0000 C   0  0
    0.0000    0.0000    0.0000 C   0  0
    0.0000    0.0000    0.0000 H   0  0
    0.0000    0.0000    0.0000 C   0  0
    0.0000    0.0000    0.0000 O   0  0
    0.0000    0.0000    0.0000 N   0  0
    0.0000    0.0000    0.0000 O   0  0
    0.0000    0.0000    0.0000 O   0  0
  1  2  1  0
  2  3  1  0
  3  4  1  0
  3  5  1  0
  3  6  1  0
  6  7  1  0
  6  8  1  0
  6  9  1  0
  9 10  1  0
 10 11  1  0
 10 12  1  0
M  END
> <Name>
3-methyl-2-pentyl nitrate

> <CAS>
000002-52-8

> <ID Model>
460

> <HOMO>
-11.73

> <D_PathSumFRel>
0

> <G_ClBrI>
0

> <SeaC2C2aa>
0

> <logkOH_EXP>
11.52

> <logkOH PRED>
11.86

> <Hat>
0.022

> <Hat Rif>
0.08

> <smiles>
CC[C@@H](C)[C@H](C)ON(O)O

> <Mol Id>
460

$$$$
