Formaldehyde
  SciTegic03251110552D

  2  1  0  0  0  0            999 V2000
    0.0000    0.0000    0.0000 O   0  0
    0.0000    0.0000    0.0000 C   0  0
  1  2  2  0
M  END
> <Name>
Formaldehyde

> <CAS>
000050-00-0

> <VED1>
1.414

> <nHAcc>
1

> <MAXDP>
1

> <CIC0>
0.5

> <Log Koc Exp>
0.56

> <Log Koc Pred>
-0.03

> <Hat>
0.139

> <Hat Cutoff>
0.161

> <ID Model>
1

> <Smiles>
O=C

$$$$
Benzo[a]pyrene
  SciTegic03251110552D

 20 24  0  0  0  0            999 V2000
    0.0000    0.0000    0.0000 C   0  0
    0.0000    0.0000    0.0000 C   0  0
    0.0000    0.0000    0.0000 C   0  0
    0.0000    0.0000    0.0000 C   0  0
    0.0000    0.0000    0.0000 C   0  0
    0.0000    0.0000    0.0000 C   0  0
    0.0000    0.0000    0.0000 C   0  0
    0.0000    0.0000    0.0000 C   0  0
    0.0000    0.0000    0.0000 C   0  0
    0.0000    0.0000    0.0000 C   0  0
    0.0000    0.0000    0.0000 C   0  0
    0.0000    0.0000    0.0000 C   0  0
    0.0000    0.0000    0.0000 C   0  0
    0.0000    0.0000    0.0000 C   0  0
    0.0000    0.0000    0.0000 C   0  0
    0.0000    0.0000    0.0000 C   0  0
    0.0000    0.0000    0.0000 C   0  0
    0.0000    0.0000    0.0000 C   0  0
    0.0000    0.0000    0.0000 C   0  0
    0.0000    0.0000    0.0000 C   0  0
  1 14  1  0
  1  2  2  3
  2  3  1  0
  3 12  1  0
  3  4  2  3
  4  9  1  0
  4  5  1  0
  5  6  2  3
  6  7  1  0
  7 20  1  0
  7  8  2  3
  8 17  1  0
  8  9  1  0
  9 10  2  3
 10 11  1  0
 10 15  1  0
 11 12  2  3
 12 13  1  0
 13 14  2  3
 15 16  2  3
 16 17  1  0
 17 18  2  3
 18 19  1  0
 19 20  2  3
M  END
> <Name>
Benzo[a]pyrene

> <CAS>
000050-32-8

> <VED1>
4.42

> <nHAcc>
0

> <MAXDP>
0.309

> <CIC0>
4.046

> <Log Koc Exp>
5.83

> <Log Koc Pred>
5.67

> <Hat>
0.116

> <Hat Cutoff>
0.161

> <ID Model>
3

> <Smiles>
c1cc2c3ccc4c5c3c(cc2cc1)ccc5ccc4

$$$$
4-Methoxyacetanilide
  SciTegic03251110552D

 12 12  0  0  0  0            999 V2000
    0.0000    0.0000    0.0000 C   0  0
    0.0000    0.0000    0.0000 O   0  0
    0.0000    0.0000    0.0000 C   0  0
    0.0000    0.0000    0.0000 N   0  0
    0.0000    0.0000    0.0000 C   0  0
    0.0000    0.0000    0.0000 C   0  0
    0.0000    0.0000    0.0000 C   0  0
    0.0000    0.0000    0.0000 C   0  0
    0.0000    0.0000    0.0000 C   0  0
    0.0000    0.0000    0.0000 C   0  0
    0.0000    0.0000    0.0000 O   0  0
    0.0000    0.0000    0.0000 C   0  0
  1  2  2  0
  1  3  1  0
  1  4  1  0
  4  5  1  0
  5 10  1  0
  5  6  2  3
  6  7  1  0
  7  8  2  3
  8  9  1  0
  8 11  1  0
  9 10  2  3
 11 12  1  0
M  END
> <Name>
4-Methoxyacetanilide

> <CAS>
000051-66-1

> <VED1>
3.404

> <nHAcc>
3

> <MAXDP>
3.625

> <CIC0>
2.982

> <Log Koc Exp>
1.4

> <Log Koc Pred>
1.85

> <Hat>
0.019

> <Hat Cutoff>
0.161

> <ID Model>
4

> <Smiles>
C(=O)(C)Nc1ccc(cc1)OC

$$$$
Trichlorfon
  SciTegic03251110552D

 13 12  0  0  0  0            999 V2000
    0.0000    0.0000    0.0000 Cl  0  0
    0.0000    0.0000    0.0000 C   0  0
    0.0000    0.0000    0.0000 C   0  0
    0.0000    0.0000    0.0000 H   0  0
    0.0000    0.0000    0.0000 O   0  0
    0.0000    0.0000    0.0000 P   0  0
    0.0000    0.0000    0.0000 O   0  0
    0.0000    0.0000    0.0000 O   0  0
    0.0000    0.0000    0.0000 C   0  0
    0.0000    0.0000    0.0000 O   0  0
    0.0000    0.0000    0.0000 C   0  0
    0.0000    0.0000    0.0000 Cl  0  0
    0.0000    0.0000    0.0000 Cl  0  0
  1  2  1  0
  2  3  1  0
  2 12  1  0
  2 13  1  0
  3  4  1  0
  3  5  1  0
  3  6  1  0
  6  7  2  0
  6  8  1  0
  6 10  1  0
  8  9  1  0
 10 11  1  0
M  END
> <Name>
Trichlorfon

> <CAS>
000052-68-6

> <VED1>
3.411

> <nHAcc>
4

> <MAXDP>
4.35

> <CIC0>
2.238

> <Log Koc Exp>
1.6

> <Log Koc Pred>
1.55

> <Hat>
0.035

> <Hat Cutoff>
0.161

> <ID Model>
5

> <Smiles>
ClC([C@H](O)P(=O)(OC)OC)(Cl)Cl

$$$$
Dibenz[a,h]anthracene
  SciTegic03251110552D

 22 26  0  0  0  0            999 V2000
    0.0000    0.0000    0.0000 C   0  0
    0.0000    0.0000    0.0000 C   0  0
    0.0000    0.0000    0.0000 C   0  0
    0.0000    0.0000    0.0000 C   0  0
    0.0000    0.0000    0.0000 C   0  0
    0.0000    0.0000    0.0000 C   0  0
    0.0000    0.0000    0.0000 C   0  0
    0.0000    0.0000    0.0000 C   0  0
    0.0000    0.0000    0.0000 C   0  0
    0.0000    0.0000    0.0000 C   0  0
    0.0000    0.0000    0.0000 C   0  0
    0.0000    0.0000    0.0000 C   0  0
    0.0000    0.0000    0.0000 C   0  0
    0.0000    0.0000    0.0000 C   0  0
    0.0000    0.0000    0.0000 C   0  0
    0.0000    0.0000    0.0000 C   0  0
    0.0000    0.0000    0.0000 C   0  0
    0.0000    0.0000    0.0000 C   0  0
    0.0000    0.0000    0.0000 C   0  0
    0.0000    0.0000    0.0000 C   0  0
    0.0000    0.0000    0.0000 C   0  0
    0.0000    0.0000    0.0000 C   0  0
  1  6  1  0
  1 10  1  0
  1  2  2  3
  2  3  1  0
  3  4  2  3
  4  5  1  0
  5  6  2  3
  6  7  1  0
  7 14  1  0
  7  8  2  3
  8  9  1  0
  8 11  1  0
  9 10  2  3
 11 12  2  3
 12 18  1  0
 12 13  1  0
 13 14  2  3
 13 15  1  0
 15 16  2  3
 16 17  1  0
 17 22  1  0
 17 18  2  3
 18 19  1  0
 19 20  2  3
 20 21  1  0
 21 22  2  3
M  END
> <Name>
Dibenz[a,h]anthracene

> <CAS>
000053-70-3

> <VED1>
4.626

> <nHAcc>
0

> <MAXDP>
0.333

> <CIC0>
4.206

> <Log Koc Exp>
6.25

> <Log Koc Pred>
6.04

> <Hat>
0.135

> <Hat Cutoff>
0.161

> <ID Model>
6

> <Smiles>
c12ccccc1c1c(cc2)cc2c(c1)ccc1c2cccc1

$$$$
Benzamide
  SciTegic03251110552D

  9  9  0  0  0  0            999 V2000
    0.0000    0.0000    0.0000 C   0  0
    0.0000    0.0000    0.0000 C   0  0
    0.0000    0.0000    0.0000 C   0  0
    0.0000    0.0000    0.0000 C   0  0
    0.0000    0.0000    0.0000 C   0  0
    0.0000    0.0000    0.0000 C   0  0
    0.0000    0.0000    0.0000 C   0  0
    0.0000    0.0000    0.0000 O   0  0
    0.0000    0.0000    0.0000 N   0  0
  1  6  1  0
  1  2  2  3
  2  3  1  0
  3  4  2  3
  4  5  1  0
  5  6  2  3
  6  7  1  0
  7  8  2  0
  7  9  1  0
M  END
> <Name>
Benzamide

> <CAS>
000055-21-0

> <VED1>
2.965

> <nHAcc>
2

> <MAXDP>
3.423

> <CIC0>
2.456

> <Log Koc Exp>
1.46

> <Log Koc Pred>
1.5

> <Hat>
0.028

> <Hat Cutoff>
0.161

> <ID Model>
8

> <Smiles>
c1ccccc1C(=O)N

$$$$
Tetrachloromethane
  SciTegic03251110552D

  5  4  0  0  0  0            999 V2000
    0.0000    0.0000    0.0000 Cl  0  0
    0.0000    0.0000    0.0000 C   0  0
    0.0000    0.0000    0.0000 Cl  0  0
    0.0000    0.0000    0.0000 Cl  0  0
    0.0000    0.0000    0.0000 Cl  0  0
  1  2  1  0
  2  3  1  0
  2  4  1  0
  2  5  1  0
M  END
> <Name>
Tetrachloromethane

> <CAS>
000056-23-5

> <VED1>
2.204

> <nHAcc>
0

> <MAXDP>
0.715

> <CIC0>
1.6

> <Log Koc Exp>
1.85

> <Log Koc Pred>
1.69

> <Hat>
0.058

> <Hat Cutoff>
0.161

> <ID Model>
10

> <Smiles>
ClC(Cl)(Cl)Cl

$$$$
Parathion(=ethyl parathion)
  SciTegic03251110552D

 18 18  0  0  0  0            999 V2000
    0.0000    0.0000    0.0000 C   0  0
    0.0000    0.0000    0.0000 C   0  0
    0.0000    0.0000    0.0000 O   0  0
    0.0000    0.0000    0.0000 P   0  0
    0.0000    0.0000    0.0000 S   0  0
    0.0000    0.0000    0.0000 O   0  0
    0.0000    0.0000    0.0000 C   0  0
    0.0000    0.0000    0.0000 C   0  0
    0.0000    0.0000    0.0000 O   0  0
    0.0000    0.0000    0.0000 C   0  0
    0.0000    0.0000    0.0000 C   0  0
    0.0000    0.0000    0.0000 C   0  0
    0.0000    0.0000    0.0000 C   0  0
    0.0000    0.0000    0.0000 C   0  0
    0.0000    0.0000    0.0000 C   0  0
    0.0000    0.0000    0.0000 N   0  0
    0.0000    0.0000    0.0000 O   0  0
    0.0000    0.0000    0.0000 O   0  0
  1 15  1  0
  1  2  2  3
  2  3  1  0
  2 12  1  0
  3  4  1  0
  4  5  2  0
  4  6  1  0
  4  9  1  0
  6  7  1  0
  7  8  1  0
  9 10  1  0
 10 11  1  0
 12 13  2  3
 13 14  1  0
 14 15  2  3
 14 16  1  0
 16 17  1  0
 16 18  1  0
M  END
> <Name>
Parathion(=ethyl parathion)

> <CAS>
000056-38-2

> <VED1>
4.168

> <nHAcc>
5

> <MAXDP>
3.504

> <CIC0>
3.067

> <Log Koc Exp>
3.2

> <Log Koc Pred>
2.79

> <Hat>
0.027

> <Hat Cutoff>
0.161

> <ID Model>
11

> <Smiles>
c1c(OP(=S)(OCC)OCC)ccc(c1)N(O)O

$$$$
3-Methylcholanthrene
  SciTegic03251110552D

 21 25  0  0  0  0            999 V2000
    0.0000    0.0000    0.0000 C   0  0
    0.0000    0.0000    0.0000 C   0  0
    0.0000    0.0000    0.0000 C   0  0
    0.0000    0.0000    0.0000 C   0  0
    0.0000    0.0000    0.0000 C   0  0
    0.0000    0.0000    0.0000 C   0  0
    0.0000    0.0000    0.0000 C   0  0
    0.0000    0.0000    0.0000 C   0  0
    0.0000    0.0000    0.0000 C   0  0
    0.0000    0.0000    0.0000 C   0  0
    0.0000    0.0000    0.0000 C   0  0
    0.0000    0.0000    0.0000 C   0  0
    0.0000    0.0000    0.0000 C   0  0
    0.0000    0.0000    0.0000 C   0  0
    0.0000    0.0000    0.0000 C   0  0
    0.0000    0.0000    0.0000 C   0  0
    0.0000    0.0000    0.0000 C   0  0
    0.0000    0.0000    0.0000 C   0  0
    0.0000    0.0000    0.0000 C   0  0
    0.0000    0.0000    0.0000 C   0  0
    0.0000    0.0000    0.0000 C   0  0
  1  6  1  0
  1  2  2  3
  2  3  1  0
  3  4  2  3
  4 10  1  0
  4  5  1  0
  5  6  2  3
  5  7  1  0
  7  8  2  3
  8  9  1  0
  9 14  1  0
  9 10  2  3
 10 11  1  0
 11 12  2  3
 12 20  1  0
 12 13  1  0
 13 17  1  0
 13 14  2  3
 14 15  1  0
 15 16  1  0
 16 17  1  0
 17 18  2  3
 18 19  1  0
 18 21  1  0
 19 20  2  3
M  END
> <Name>
3-Methylcholanthrene

> <CAS>
000056-49-5

> <VED1>
4.523

> <nHAcc>
0

> <MAXDP>
0.394

> <CIC0>
4.223

> <Log Koc Exp>
6.1

> <Log Koc Pred>
5.8

> <Hat>
0.125

> <Hat Cutoff>
0.161

> <ID Model>
12

> <Smiles>
c1ccc2c(c1)ccc1c2cc2c3c1CCc3c(cc2)C

$$$$
Diethylstilbestrol
  SciTegic03251110552D

 20 21  0  0  0  0            999 V2000
    0.0000    0.0000    0.0000 O   0  0
    0.0000    0.0000    0.0000 C   0  0
    0.0000    0.0000    0.0000 C   0  0
    0.0000    0.0000    0.0000 C   0  0
    0.0000    0.0000    0.0000 C   0  0
    0.0000    0.0000    0.0000 C   0  0
    0.0000    0.0000    0.0000 C   0  0
    0.0000    0.0000    0.0000 C   0  0
    0.0000    0.0000    0.0000 C   0  0
    0.0000    0.0000    0.0000 C   0  0
    0.0000    0.0000    0.0000 C   0  0
    0.0000    0.0000    0.0000 C   0  0
    0.0000    0.0000    0.0000 C   0  0
    0.0000    0.0000    0.0000 C   0  0
    0.0000    0.0000    0.0000 C   0  0
    0.0000    0.0000    0.0000 C   0  0
    0.0000    0.0000    0.0000 C   0  0
    0.0000    0.0000    0.0000 O   0  0
    0.0000    0.0000    0.0000 C   0  0
    0.0000    0.0000    0.0000 C   0  0
  1  2  1  0
  2  7  1  0
  2  3  2  3
  3  4  1  0
  4  5  2  3
  5  6  1  0
  5  8  1  0
  6  7  2  3
  8  9  2  3
  8 19  1  0
  9 10  1  0
  9 12  1  0
 10 11  1  0
 12 17  1  0
 12 13  2  3
 13 14  1  0
 14 15  2  3
 15 16  1  0
 15 18  1  0
 16 17  2  3
 19 20  1  0
M  END
> <Name>
Diethylstilbestrol

> <CAS>
000056-53-1

> <VED1>
4.399

> <nHAcc>
2

> <MAXDP>
3.411

> <CIC0>
4.087

> <Log Koc Exp>
4.14

> <Log Koc Pred>
3.98

> <Hat>
0.042

> <Hat Cutoff>
0.161

> <ID Model>
13

> <Smiles>
Oc1ccc(cc1)C(=C(CC)c1ccc(cc1)O)CC

$$$$
Benzo[a]anthracene
  SciTegic03251110552D

 18 21  0  0  0  0            999 V2000
    0.0000    0.0000    0.0000 C   0  0
    0.0000    0.0000    0.0000 C   0  0
    0.0000    0.0000    0.0000 C   0  0
    0.0000    0.0000    0.0000 C   0  0
    0.0000    0.0000    0.0000 C   0  0
    0.0000    0.0000    0.0000 C   0  0
    0.0000    0.0000    0.0000 C   0  0
    0.0000    0.0000    0.0000 C   0  0
    0.0000    0.0000    0.0000 C   0  0
    0.0000    0.0000    0.0000 C   0  0
    0.0000    0.0000    0.0000 C   0  0
    0.0000    0.0000    0.0000 C   0  0
    0.0000    0.0000    0.0000 C   0  0
    0.0000    0.0000    0.0000 C   0  0
    0.0000    0.0000    0.0000 C   0  0
    0.0000    0.0000    0.0000 C   0  0
    0.0000    0.0000    0.0000 C   0  0
    0.0000    0.0000    0.0000 C   0  0
  1 10  1  0
  1  2  2  3
  2  3  1  0
  3  8  1  0
  3  4  2  3
  4  5  1  0
  5 14  1  0
  5  6  2  3
  6  7  1  0
  6 11  1  0
  7  8  2  3
  8  9  1  0
  9 10  2  3
 11 18  1  0
 11 12  2  3
 12 13  1  0
 12 15  1  0
 13 14  2  3
 15 16  2  3
 16 17  1  0
 17 18  2  3
M  END
> <Name>
Benzo[a]anthracene

> <CAS>
000056-55-3

> <VED1>
4.191

> <nHAcc>
0

> <MAXDP>
0.299

> <CIC0>
3.936

> <Log Koc Exp>
5.4

> <Log Koc Pred>
5.23

> <Hat>
0.1

> <Hat Cutoff>
0.161

> <ID Model>
14

> <Smiles>
c1cc2cc3c(cc2cc1)c1c(cc3)cccc1

$$$$
Urea
  SciTegic03251110552D

  4  3  0  0  0  0            999 V2000
    0.0000    0.0000    0.0000 N   0  0
    0.0000    0.0000    0.0000 C   0  0
    0.0000    0.0000    0.0000 O   0  0
    0.0000    0.0000    0.0000 N   0  0
  1  2  1  0
  2  3  2  0
  2  4  1  0
M  END
> <Name>
Urea

> <CAS>
000057-13-6

> <VED1>
1.972

> <nHAcc>
3

> <MAXDP>
2

> <CIC0>
1.25

> <Log Koc Exp>
1.03

> <Log Koc Pred>
-0.09

> <Hat>
0.102

> <Hat Cutoff>
0.161

> <ID Model>
15

> <Smiles>
NC(=O)N

$$$$
Propyleneglycol
  SciTegic03251110552D

  6  5  0  0  0  0            999 V2000
    0.0000    0.0000    0.0000 C   0  0
    0.0000    0.0000    0.0000 C   0  0
    0.0000    0.0000    0.0000 H   0  0
    0.0000    0.0000    0.0000 C   0  0
    0.0000    0.0000    0.0000 O   0  0
    0.0000    0.0000    0.0000 O   0  0
  1  2  1  0
  1  6  1  0
  2  3  1  0
  2  4  1  0
  2  5  1  0
M  END
> <Name>
Propyleneglycol

> <CAS>
000057-55-6

> <VED1>
2.202

> <nHAcc>
2

> <MAXDP>
2.111

> <CIC0>
2.366

> <Log Koc Exp>
0.36

> <Log Koc Pred>
0.33

> <Hat>
0.082

> <Hat Cutoff>
0.161

> <ID Model>
16

> <Smiles>
C([C@H](C)O)O

$$$$
7,12-Dimethylbenz[a]anthracene
  SciTegic03251110552D

 20 23  0  0  0  0            999 V2000
    0.0000    0.0000    0.0000 C   0  0
    0.0000    0.0000    0.0000 C   0  0
    0.0000    0.0000    0.0000 C   0  0
    0.0000    0.0000    0.0000 C   0  0
    0.0000    0.0000    0.0000 C   0  0
    0.0000    0.0000    0.0000 C   0  0
    0.0000    0.0000    0.0000 C   0  0
    0.0000    0.0000    0.0000 C   0  0
    0.0000    0.0000    0.0000 C   0  0
    0.0000    0.0000    0.0000 C   0  0
    0.0000    0.0000    0.0000 C   0  0
    0.0000    0.0000    0.0000 C   0  0
    0.0000    0.0000    0.0000 C   0  0
    0.0000    0.0000    0.0000 C   0  0
    0.0000    0.0000    0.0000 C   0  0
    0.0000    0.0000    0.0000 C   0  0
    0.0000    0.0000    0.0000 C   0  0
    0.0000    0.0000    0.0000 C   0  0
    0.0000    0.0000    0.0000 C   0  0
    0.0000    0.0000    0.0000 C   0  0
  1 10  1  0
  1  2  2  3
  2  3  1  0
  3  8  1  0
  3  4  2  3
  4  5  1  0
  4 20  1  0
  5 15  1  0
  5  6  2  3
  6  7  1  0
  6 12  1  0
  7  8  2  3
  7 11  1  0
  8  9  1  0
  9 10  2  3
 12 13  2  3
 13 14  1  0
 14 19  1  0
 14 15  2  3
 15 16  1  0
 16 17  2  3
 17 18  1  0
 18 19  2  3
M  END
> <Name>
7,12-Dimethylbenz[a]anthracene

> <CAS>
000057-97-6

> <VED1>
4.416

> <nHAcc>
0

> <MAXDP>
0.27

> <CIC0>
4.179

> <Log Koc Exp>
5.36

> <Log Koc Pred>
5.63

> <Hat>
0.121

> <Hat Cutoff>
0.161

> <ID Model>
17

> <Smiles>
c1cc2c(c3c(c(c2cc1)C)ccc1c3cccc1)C

$$$$
Lindane
  SciTegic03251110552D

 18 18  0  0  0  0            999 V2000
    0.0000    0.0000    0.0000 C   0  0
    0.0000    0.0000    0.0000 H   0  0
    0.0000    0.0000    0.0000 C   0  0
    0.0000    0.0000    0.0000 H   0  0
    0.0000    0.0000    0.0000 C   0  0
    0.0000    0.0000    0.0000 H   0  0
    0.0000    0.0000    0.0000 C   0  0
    0.0000    0.0000    0.0000 H   0  0
    0.0000    0.0000    0.0000 C   0  0
    0.0000    0.0000    0.0000 H   0  0
    0.0000    0.0000    0.0000 C   0  0
    0.0000    0.0000    0.0000 H   0  0
    0.0000    0.0000    0.0000 Cl  0  0
    0.0000    0.0000    0.0000 Cl  0  0
    0.0000    0.0000    0.0000 Cl  0  0
    0.0000    0.0000    0.0000 Cl  0  0
    0.0000    0.0000    0.0000 Cl  0  0
    0.0000    0.0000    0.0000 Cl  0  0
  1  2  1  0
  1 11  1  0
  1  3  1  0
  1 18  1  0
  3  4  1  0
  3  5  1  0
  3 17  1  0
  5  6  1  0
  5  7  1  0
  5 16  1  0
  7  8  1  0
  7  9  1  0
  7 15  1  0
  9 10  1  0
  9 11  1  0
  9 14  1  0
 11 12  1  0
 11 13  1  0
M  END
> <Name>
Lindane

> <CAS>
000058-89-9

> <VED1>
3.419

> <nHAcc>
0

> <MAXDP>
1.77

> <CIC0>
2.585

> <Log Koc Exp>
3

> <Log Koc Pred>
3.6

> <Hat>
0.037

> <Hat Cutoff>
0.161

> <ID Model>
18

> <Smiles>
[C@@H]1([C@H]([C@@H]([C@H]([C@H]([C@@H]1Cl)Cl)Cl)Cl)Cl)Cl

$$$$
2,3,4,6-Tetrachlorophenol
  SciTegic03251110552D

 11 11  0  0  0  0            999 V2000
    0.0000    0.0000    0.0000 C   0  0
    0.0000    0.0000    0.0000 C   0  0
    0.0000    0.0000    0.0000 C   0  0
    0.0000    0.0000    0.0000 C   0  0
    0.0000    0.0000    0.0000 C   0  0
    0.0000    0.0000    0.0000 C   0  0
    0.0000    0.0000    0.0000 Cl  0  0
    0.0000    0.0000    0.0000 Cl  0  0
    0.0000    0.0000    0.0000 Cl  0  0
    0.0000    0.0000    0.0000 Cl  0  0
    0.0000    0.0000    0.0000 O   0  0
  1  6  1  0
  1  2  2  3
  1 11  1  0
  2  3  1  0
  2 10  1  0
  3  4  2  3
  4  5  1  0
  4  9  1  0
  5  6  2  3
  5  8  1  0
  6  7  1  0
M  END
> <Name>
2,3,4,6-Tetrachlorophenol

> <CAS>
000058-90-2

> <VED1>
3.274

> <nHAcc>
1

> <MAXDP>
3.105

> <CIC0>
1.962

> <Log Koc Exp>
3.35

> <Log Koc Pred>
2.75

> <Hat>
0.057

> <Hat Cutoff>
0.161

> <ID Model>
19

> <Smiles>
c1(c(cc(c(c1Cl)Cl)Cl)Cl)O

$$$$
p-Phenylazoaniline
  SciTegic03251110552D

 15 16  0  0  0  0            999 V2000
    0.0000    0.0000    0.0000 C   0  0
    0.0000    0.0000    0.0000 N   0  0
    0.0000    0.0000    0.0000 N   0  0
    0.0000    0.0000    0.0000 C   0  0
    0.0000    0.0000    0.0000 C   0  0
    0.0000    0.0000    0.0000 C   0  0
    0.0000    0.0000    0.0000 C   0  0
    0.0000    0.0000    0.0000 N   0  0
    0.0000    0.0000    0.0000 C   0  0
    0.0000    0.0000    0.0000 C   0  0
    0.0000    0.0000    0.0000 C   0  0
    0.0000    0.0000    0.0000 C   0  0
    0.0000    0.0000    0.0000 C   0  0
    0.0000    0.0000    0.0000 C   0  0
    0.0000    0.0000    0.0000 C   0  0
  1 15  1  0
  1  2  1  0
  1 11  2  3
  2  3  2  3
  3  4  1  0
  4 10  1  0
  4  5  2  3
  5  6  1  0
  6  7  2  3
  7  8  1  0
  7  9  1  0
  9 10  2  3
 11 12  1  0
 12 13  2  3
 13 14  1  0
 14 15  2  3
M  END
> <Name>
p-Phenylazoaniline

> <CAS>
000060-09-3

> <VED1>
3.823

> <nHAcc>
3

> <MAXDP>
1.562

> <CIC0>
3.301

> <Log Koc Exp>
2.79

> <Log Koc Pred>
3.26

> <Hat>
0.044

> <Hat Cutoff>
0.161

> <ID Model>
20

> <Smiles>
c1(N=Nc2ccc(N)cc2)ccccc1

$$$$
4-Dimethylaminoazobenzene
  SciTegic03251110552D

 17 18  0  0  0  0            999 V2000
    0.0000    0.0000    0.0000 C   0  0
    0.0000    0.0000    0.0000 N   0  0
    0.0000    0.0000    0.0000 N   0  0
    0.0000    0.0000    0.0000 C   0  0
    0.0000    0.0000    0.0000 C   0  0
    0.0000    0.0000    0.0000 C   0  0
    0.0000    0.0000    0.0000 C   0  0
    0.0000    0.0000    0.0000 C   0  0
    0.0000    0.0000    0.0000 C   0  0
    0.0000    0.0000    0.0000 N   0  0
    0.0000    0.0000    0.0000 C   0  0
    0.0000    0.0000    0.0000 C   0  0
    0.0000    0.0000    0.0000 C   0  0
    0.0000    0.0000    0.0000 C   0  0
    0.0000    0.0000    0.0000 C   0  0
    0.0000    0.0000    0.0000 C   0  0
    0.0000    0.0000    0.0000 C   0  0
  1 17  1  0
  1  2  1  0
  1 13  2  3
  2  3  2  3
  3  4  1  0
  4  9  1  0
  4  5  2  3
  5  6  1  0
  6  7  2  3
  7  8  1  0
  7 10  1  0
  8  9  2  3
 10 11  1  0
 10 12  1  0
 13 14  1  0
 14 15  2  3
 15 16  1  0
 16 17  2  3
M  END
> <Name>
4-Dimethylaminoazobenzene

> <CAS>
000060-11-7

> <VED1>
4.063

> <nHAcc>
3

> <MAXDP>
1.183

> <CIC0>
3.646

> <Log Koc Exp>
3.87

> <Log Koc Pred>
3.77

> <Hat>
0.069

> <Hat Cutoff>
0.161

> <ID Model>
21

> <Smiles>
c1(N=Nc2ccc(cc2)N(C)C)ccccc1

$$$$
2-Phenylethanol
  SciTegic03251110552D

  9  9  0  0  0  0            999 V2000
    0.0000    0.0000    0.0000 C   0  0
    0.0000    0.0000    0.0000 C   0  0
    0.0000    0.0000    0.0000 C   0  0
    0.0000    0.0000    0.0000 C   0  0
    0.0000    0.0000    0.0000 C   0  0
    0.0000    0.0000    0.0000 C   0  0
    0.0000    0.0000    0.0000 C   0  0
    0.0000    0.0000    0.0000 C   0  0
    0.0000    0.0000    0.0000 O   0  0
  1  2  1  0
  1  8  1  0
  2  7  1  0
  2  3  2  3
  3  4  1  0
  4  5  2  3
  5  6  1  0
  6  7  2  3
  8  9  1  0
M  END
> <Name>
2-Phenylethanol

> <CAS>
000060-12-8

> <VED1>
2.959

> <nHAcc>
1

> <MAXDP>
2.52

> <CIC0>
3.012

> <Log Koc Exp>
1.5

> <Log Koc Pred>
1.92

> <Hat>
0.035

> <Hat Cutoff>
0.161

> <ID Model>
22

> <Smiles>
C(c1ccccc1)CO

$$$$
Dimethoate
  SciTegic03251110552D

 12 11  0  0  0  0            999 V2000
    0.0000    0.0000    0.0000 O   0  0
    0.0000    0.0000    0.0000 C   0  0
    0.0000    0.0000    0.0000 C   0  0
    0.0000    0.0000    0.0000 S   0  0
    0.0000    0.0000    0.0000 P   0  0
    0.0000    0.0000    0.0000 S   0  0
    0.0000    0.0000    0.0000 O   0  0
    0.0000    0.0000    0.0000 C   0  0
    0.0000    0.0000    0.0000 O   0  0
    0.0000    0.0000    0.0000 C   0  0
    0.0000    0.0000    0.0000 N   0  0
    0.0000    0.0000    0.0000 C   0  0
  1  2  2  0
  2  3  1  0
  2 11  1  0
  3  4  1  0
  4  5  1  0
  5  6  2  0
  5  7  1  0
  5  9  1  0
  7  8  1  0
  9 10  1  0
 11 12  1  0
M  END
> <Name>
Dimethoate

> <CAS>
000060-51-5

> <VED1>
3.408

> <nHAcc>
4

> <MAXDP>
3.819

> <CIC0>
2.558

> <Log Koc Exp>
1.08

> <Log Koc Pred>
1.6

> <Hat>
0.022

> <Hat Cutoff>
0.161

> <ID Model>
23

> <Smiles>
O=C(CSP(=S)(OC)OC)NC

$$$$
Dieldrin
  SciTegic03251110552D

 25 29  0  0  0  0            999 V2000
    0.0000    0.0000    0.0000 C   0  0
    0.0000    0.0000    0.0000 H   0  0
    0.0000    0.0000    0.0000 C   0  0
    0.0000    0.0000    0.0000 H   0  0
    0.0000    0.0000    0.0000 C   0  0
    0.0000    0.0000    0.0000 C   0  0
    0.0000    0.0000    0.0000 C   0  0
    0.0000    0.0000    0.0000 C   0  0
    0.0000    0.0000    0.0000 C   0  0
    0.0000    0.0000    0.0000 Cl  0  0
    0.0000    0.0000    0.0000 Cl  0  0
    0.0000    0.0000    0.0000 Cl  0  0
    0.0000    0.0000    0.0000 Cl  0  0
    0.0000    0.0000    0.0000 Cl  0  0
    0.0000    0.0000    0.0000 Cl  0  0
    0.0000    0.0000    0.0000 C   0  0
    0.0000    0.0000    0.0000 H   0  0
    0.0000    0.0000    0.0000 C   0  0
    0.0000    0.0000    0.0000 H   0  0
    0.0000    0.0000    0.0000 C   0  0
    0.0000    0.0000    0.0000 H   0  0
    0.0000    0.0000    0.0000 C   0  0
    0.0000    0.0000    0.0000 H   0  0
    0.0000    0.0000    0.0000 C   0  0
    0.0000    0.0000    0.0000 O   0  0
  1  2  1  0
  1  8  1  0
  1 22  1  0
  1  3  1  0
  3  4  1  0
  3  5  1  0
  3 16  1  0
  5  9  1  0
  5  6  1  0
  5 15  1  0
  6  7  2  3
  6 14  1  0
  7  8  1  0
  7 13  1  0
  8  9  1  0
  8 12  1  0
  9 10  1  0
  9 11  1  0
 16 17  1  0
 16 24  1  0
 16 18  1  0
 18 19  1  0
 18 25  1  0
 18 20  1  0
 20 21  1  0
 20 22  1  0
 20 25  1  0
 22 23  1  0
 22 24  1  0
M  END
> <Name>
Dieldrin

> <CAS>
000060-57-1

> <VED1>
4.302

> <nHAcc>
1

> <MAXDP>
2.713

> <CIC0>
3.057

> <Log Koc Exp>
4.44

> <Log Koc Pred>
4.67

> <Hat>
0.065

> <Hat Cutoff>
0.161

> <ID Model>
24

> <Smiles>
[C@H]12[C@H]([C@]3(C(=C([C@@]1(C3(Cl)Cl)Cl)Cl)Cl)Cl)[C@H]1[C@@H]3[C@H]([C@@H]2C1)O3

$$$$
4-Nitrobenzoic acid
  SciTegic03251110552D

 12 12  0  0  0  0            999 V2000
    0.0000    0.0000    0.0000 C   0  0
    0.0000    0.0000    0.0000 C   0  0
    0.0000    0.0000    0.0000 C   0  0
    0.0000    0.0000    0.0000 C   0  0
    0.0000    0.0000    0.0000 C   0  0
    0.0000    0.0000    0.0000 C   0  0
    0.0000    0.0000    0.0000 N   0  0
    0.0000    0.0000    0.0000 O   0  0
    0.0000    0.0000    0.0000 O   0  0
    0.0000    0.0000    0.0000 C   0  0
    0.0000    0.0000    0.0000 O   0  0
    0.0000    0.0000    0.0000 O   0  0
  1  6  1  0
  1  2  2  3
  1 10  1  0
  2  3  1  0
  3  4  2  3
  4  5  1  0
  4  7  1  0
  5  6  2  3
  7  8  1  0
  7  9  1  0
 10 11  2  0
 10 12  1  0
M  END
> <Name>
4-Nitrobenzoic acid

> <CAS>
000062-23-7

> <VED1>
3.408

> <nHAcc>
4

> <MAXDP>
3.312

> <CIC0>
2.309

> <Log Koc Exp>
1.54

> <Log Koc Pred>
1.84

> <Hat>
0.026

> <Hat Cutoff>
0.161

> <ID Model>
26

> <Smiles>
c1(ccc(cc1)N(O)O)C(=O)O

$$$$
Aniline
  SciTegic03251110552D

  7  7  0  0  0  0            999 V2000
    0.0000    0.0000    0.0000 C   0  0
    0.0000    0.0000    0.0000 C   0  0
    0.0000    0.0000    0.0000 C   0  0
    0.0000    0.0000    0.0000 C   0  0
    0.0000    0.0000    0.0000 C   0  0
    0.0000    0.0000    0.0000 C   0  0
    0.0000    0.0000    0.0000 N   0  0
  1  6  1  0
  1  2  2  3
  2  3  1  0
  3  4  2  3
  4  5  1  0
  5  6  2  3
  6  7  1  0
M  END
> <Name>
Aniline

> <CAS>
000062-53-3

> <VED1>
2.629

> <nHAcc>
1

> <MAXDP>
1.358

> <CIC0>
2.512

> <Log Koc Exp>
1.41

> <Log Koc Pred>
1.75

> <Hat>
0.04

> <Hat Cutoff>
0.161

> <ID Model>
27

> <Smiles>
c1ccccc1N

$$$$
Thioacetamide
  SciTegic03251110552D

  4  3  0  0  0  0            999 V2000
    0.0000    0.0000    0.0000 C   0  0
    0.0000    0.0000    0.0000 C   0  0
    0.0000    0.0000    0.0000 S   0  0
    0.0000    0.0000    0.0000 N   0  0
  1  2  1  0
  2  3  2  0
  2  4  1  0
M  END
> <Name>
Thioacetamide

> <CAS>
000062-55-5

> <VED1>
1.972

> <nHAcc>
1

> <MAXDP>
0.843

> <CIC0>
1.512

> <Log Koc Exp>
0.78

> <Log Koc Pred>
0.86

> <Hat>
0.076

> <Hat Cutoff>
0.161

> <ID Model>
28

> <Smiles>
CC(=S)N

$$$$
Thiourea
  SciTegic03251110552D

  4  3  0  0  0  0            999 V2000
    0.0000    0.0000    0.0000 C   0  0
    0.0000    0.0000    0.0000 S   0  0
    0.0000    0.0000    0.0000 N   0  0
    0.0000    0.0000    0.0000 N   0  0
  1  2  2  0
  1  3  1  0
  1  4  1  0
M  END
> <Name>
Thiourea

> <CAS>
000062-56-6

> <VED1>
1.972

> <nHAcc>
2

> <MAXDP>
0.62

> <CIC0>
1.25

> <Log Koc Exp>
0.85

> <Log Koc Pred>
0.68

> <Hat>
0.104

> <Hat Cutoff>
0.161

> <ID Model>
29

> <Smiles>
C(=S)(N)N

$$$$
Dichlorvos
  SciTegic03251110552D

 11 10  0  0  0  0            999 V2000
    0.0000    0.0000    0.0000 C   0  0
    0.0000    0.0000    0.0000 O   0  0
    0.0000    0.0000    0.0000 P   0  0
    0.0000    0.0000    0.0000 O   0  0
    0.0000    0.0000    0.0000 O   0  0
    0.0000    0.0000    0.0000 C   0  0
    0.0000    0.0000    0.0000 O   0  0
    0.0000    0.0000    0.0000 C   0  0
    0.0000    0.0000    0.0000 C   0  0
    0.0000    0.0000    0.0000 Cl  0  0
    0.0000    0.0000    0.0000 Cl  0  0
  1  2  1  0
  2  3  1  0
  3  4  2  0
  3  5  1  0
  3  7  1  0
  5  6  1  0
  7  8  1  0
  8  9  2  3
  9 10  1  0
  9 11  1  0
M  END
> <Name>
Dichlorvos

> <CAS>
000062-73-7

> <VED1>
3.262

> <nHAcc>
4

> <MAXDP>
4.027

> <CIC0>
2.092

> <Log Koc Exp>
1.67

> <Log Koc Pred>
1.38

> <Hat>
0.037

> <Hat Cutoff>
0.161

> <ID Model>
30

> <Smiles>
COP(=O)(OC)OC=C(Cl)Cl

$$$$
Carbaryl
  SciTegic03251110552D

 15 16  0  0  0  0            999 V2000
    0.0000    0.0000    0.0000 C   0  0
    0.0000    0.0000    0.0000 N   0  0
    0.0000    0.0000    0.0000 C   0  0
    0.0000    0.0000    0.0000 O   0  0
    0.0000    0.0000    0.0000 O   0  0
    0.0000    0.0000    0.0000 C   0  0
    0.0000    0.0000    0.0000 C   0  0
    0.0000    0.0000    0.0000 C   0  0
    0.0000    0.0000    0.0000 C   0  0
    0.0000    0.0000    0.0000 C   0  0
    0.0000    0.0000    0.0000 C   0  0
    0.0000    0.0000    0.0000 C   0  0
    0.0000    0.0000    0.0000 C   0  0
    0.0000    0.0000    0.0000 C   0  0
    0.0000    0.0000    0.0000 C   0  0
  1  2  1  0
  2  3  1  0
  3  4  2  0
  3  5  1  0
  5  6  1  0
  6 15  1  0
  6  7  2  3
  7  8  1  0
  8  9  2  3
  9 10  1  0
 10 15  1  0
 10 11  2  3
 11 12  1  0
 12 13  2  3
 13 14  1  0
 14 15  2  3
M  END
> <Name>
Carbaryl

> <CAS>
000063-25-2

> <VED1>
3.817

> <nHAcc>
3

> <MAXDP>
4.092

> <CIC0>
3.195

> <Log Koc Exp>
2.37

> <Log Koc Pred>
2.5

> <Hat>
0.017

> <Hat Cutoff>
0.161

> <ID Model>
31

> <Smiles>
CNC(=O)Oc1cccc2ccccc12

$$$$
3-Methylphenylurea
  SciTegic03251110552D

 11 11  0  0  0  0            999 V2000
    0.0000    0.0000    0.0000 C   0  0
    0.0000    0.0000    0.0000 C   0  0
    0.0000    0.0000    0.0000 C   0  0
    0.0000    0.0000    0.0000 C   0  0
    0.0000    0.0000    0.0000 C   0  0
    0.0000    0.0000    0.0000 C   0  0
    0.0000    0.0000    0.0000 C   0  0
    0.0000    0.0000    0.0000 N   0  0
    0.0000    0.0000    0.0000 C   0  0
    0.0000    0.0000    0.0000 O   0  0
    0.0000    0.0000    0.0000 N   0  0
  1  6  1  0
  1  2  2  3
  1  8  1  0
  2  3  1  0
  3  4  2  3
  3  7  1  0
  4  5  1  0
  5  6  2  3
  8  9  1  0
  9 10  2  0
  9 11  1  0
M  END
> <Name>
3-Methylphenylurea

> <CAS>
000063-99-0

> <VED1>
3.272

> <nHAcc>
3

> <MAXDP>
3.391

> <CIC0>
2.82

> <Log Koc Exp>
1.56

> <Log Koc Pred>
1.7

> <Hat>
0.02

> <Hat Cutoff>
0.161

> <ID Model>
32

> <Smiles>
c1(cc(ccc1)C)NC(=O)N

$$$$
Phenylurea
  SciTegic03251110552D

 10 10  0  0  0  0            999 V2000
    0.0000    0.0000    0.0000 C   0  0
    0.0000    0.0000    0.0000 C   0  0
    0.0000    0.0000    0.0000 C   0  0
    0.0000    0.0000    0.0000 C   0  0
    0.0000    0.0000    0.0000 C   0  0
    0.0000    0.0000    0.0000 C   0  0
    0.0000    0.0000    0.0000 N   0  0
    0.0000    0.0000    0.0000 C   0  0
    0.0000    0.0000    0.0000 O   0  0
    0.0000    0.0000    0.0000 N   0  0
  1  6  1  0
  1  2  2  3
  1  7  1  0
  2  3  1  0
  3  4  2  3
  4  5  1  0
  5  6  2  3
  7  8  1  0
  8  9  2  0
  8 10  1  0
M  END
> <Name>
Phenylurea

> <CAS>
000064-10-8

> <VED1>
3.122

> <nHAcc>
3

> <MAXDP>
3.28

> <CIC0>
2.536

> <Log Koc Exp>
1.43

> <Log Koc Pred>
1.51

> <Hat>
0.022

> <Hat Cutoff>
0.161

> <ID Model>
33

> <Smiles>
c1(ccccc1)NC(=O)N

$$$$
Ethanol
  SciTegic03251110552D

  3  2  0  0  0  0            999 V2000
    0.0000    0.0000    0.0000 C   0  0
    0.0000    0.0000    0.0000 C   0  0
    0.0000    0.0000    0.0000 O   0  0
  1  2  1  0
  2  3  1  0
M  END
> <Name>
Ethanol

> <CAS>
000064-17-5

> <VED1>
1.716

> <nHAcc>
1

> <MAXDP>
1.569

> <CIC0>
1.946

> <Log Koc Exp>
0.2

> <Log Koc Pred>
-0.04

> <Hat>
0.108

> <Hat Cutoff>
0.161

> <ID Model>
34

> <Smiles>
CCO

$$$$
Acetic Acid
  SciTegic03251110552D

  4  3  0  0  0  0            999 V2000
    0.0000    0.0000    0.0000 O   0  0
    0.0000    0.0000    0.0000 C   0  0
    0.0000    0.0000    0.0000 O   0  0
    0.0000    0.0000    0.0000 C   0  0
  1  2  1  0
  2  3  2  0
  2  4  1  0
M  END
> <Name>
Acetic Acid

> <CAS>
000064-19-7

> <VED1>
1.972

> <nHAcc>
2

> <MAXDP>
2

> <CIC0>
1.5

> <Log Koc Exp>
0

> <Log Koc Pred>
0.17

> <Hat>
0.081

> <Hat Cutoff>
0.161

> <ID Model>
35

> <Smiles>
OC(=O)C

$$$$
Methanol
  SciTegic03251110552D

  2  1  0  0  0  0            999 V2000
    0.0000    0.0000    0.0000 C   0  0
    0.0000    0.0000    0.0000 O   0  0
  1  2  1  0
M  END
> <Name>
Methanol

> <CAS>
000067-56-1

> <VED1>
1.414

> <nHAcc>
1

> <MAXDP>
1

> <CIC0>
1.333

> <Log Koc Exp>
0.44

> <Log Koc Pred>
-0.3

> <Hat>
0.127

> <Hat Cutoff>
0.161

> <ID Model>
37

> <Smiles>
CO

$$$$
Trichloromethane
  SciTegic03251110552D

  4  3  0  0  0  0            999 V2000
    0.0000    0.0000    0.0000 C   0  0
    0.0000    0.0000    0.0000 Cl  0  0
    0.0000    0.0000    0.0000 Cl  0  0
    0.0000    0.0000    0.0000 Cl  0  0
  1  2  1  0
  1  3  1  0
  1  4  1  0
M  END
> <Name>
Trichloromethane

> <CAS>
000067-66-3

> <VED1>
1.972

> <nHAcc>
0

> <MAXDP>
0.694

> <CIC0>
0.951

> <Log Koc Exp>
1.65

> <Log Koc Pred>
1.43

> <Hat>
0.092

> <Hat Cutoff>
0.161

> <ID Model>
38

> <Smiles>
C(Cl)(Cl)Cl

$$$$
Hexachloroethane
  SciTegic03251110552D

  8  7  0  0  0  0            999 V2000
    0.0000    0.0000    0.0000 Cl  0  0
    0.0000    0.0000    0.0000 C   0  0
    0.0000    0.0000    0.0000 Cl  0  0
    0.0000    0.0000    0.0000 Cl  0  0
    0.0000    0.0000    0.0000 C   0  0
    0.0000    0.0000    0.0000 Cl  0  0
    0.0000    0.0000    0.0000 Cl  0  0
    0.0000    0.0000    0.0000 Cl  0  0
  1  2  1  0
  2  3  1  0
  2  4  1  0
  2  5  1  0
  5  6  1  0
  5  7  1  0
  5  8  1  0
M  END
> <Name>
Hexachloroethane

> <CAS>
000067-72-1

> <VED1>
2.789

> <nHAcc>
0

> <MAXDP>
1.033

> <CIC0>
2.189

> <Log Koc Exp>
3.34

> <Log Koc Pred>
2.63

> <Hat>
0.035

> <Hat Cutoff>
0.161

> <ID Model>
39

> <Smiles>
ClC(Cl)(Cl)C(Cl)(Cl)Cl

$$$$
1-Propanol
  SciTegic03251110552D

  4  3  0  0  0  0            999 V2000
    0.0000    0.0000    0.0000 C   0  0
    0.0000    0.0000    0.0000 C   0  0
    0.0000    0.0000    0.0000 C   0  0
    0.0000    0.0000    0.0000 O   0  0
  1  2  1  0
  2  3  1  0
  3  4  1  0
M  END
> <Name>
1-Propanol

> <CAS>
000071-23-8

> <VED1>
1.974

> <nHAcc>
1

> <MAXDP>
1.875

> <CIC0>
2.396

> <Log Koc Exp>
0.48

> <Log Koc Pred>
0.25

> <Hat>
0.1

> <Hat Cutoff>
0.161

> <ID Model>
40

> <Smiles>
CCCO

$$$$
1-Pentanol
  SciTegic03251110552D

  6  5  0  0  0  0            999 V2000
    0.0000    0.0000    0.0000 C   0  0
    0.0000    0.0000    0.0000 C   0  0
    0.0000    0.0000    0.0000 C   0  0
    0.0000    0.0000    0.0000 C   0  0
    0.0000    0.0000    0.0000 C   0  0
    0.0000    0.0000    0.0000 O   0  0
  1  2  1  0
  2  3  1  0
  3  4  1  0
  4  5  1  0
  5  6  1  0
M  END
> <Name>
1-Pentanol

> <CAS>
000071-41-0

> <VED1>
2.412

> <nHAcc>
1

> <MAXDP>
2.197

> <CIC0>
3.035

> <Log Koc Exp>
0.7

> <Log Koc Pred>
0.86

> <Hat>
0.093

> <Hat Cutoff>
0.161

> <ID Model>
42

> <Smiles>
CCCCCO

$$$$
Benzene
  SciTegic03251110552D

  6  6  0  0  0  0            999 V2000
    0.0000    0.0000    0.0000 C   0  0
    0.0000    0.0000    0.0000 C   0  0
    0.0000    0.0000    0.0000 C   0  0
    0.0000    0.0000    0.0000 C   0  0
    0.0000    0.0000    0.0000 C   0  0
    0.0000    0.0000    0.0000 C   0  0
  1  6  1  0
  1  2  2  3
  2  3  1  0
  3  4  2  3
  4  5  1  0
  5  6  2  3
M  END
> <Name>
Benzene

> <CAS>
000071-43-2

> <VED1>
2.449

> <nHAcc>
0

> <MAXDP>
0

> <CIC0>
2.585

> <Log Koc Exp>
1.94

> <Log Koc Pred>
2.11

> <Hat>
0.073

> <Hat Cutoff>
0.161

> <ID Model>
43

> <Smiles>
c1ccccc1

$$$$
1,1,1-Trichloroethane
  SciTegic03251110552D

  5  4  0  0  0  0            999 V2000
    0.0000    0.0000    0.0000 C   0  0
    0.0000    0.0000    0.0000 C   0  0
    0.0000    0.0000    0.0000 Cl  0  0
    0.0000    0.0000    0.0000 Cl  0  0
    0.0000    0.0000    0.0000 Cl  0  0
  1  2  1  0
  2  3  1  0
  2  4  1  0
  2  5  1  0
M  END
> <Name>
1,1,1-Trichloroethane

> <CAS>
000071-55-6

> <VED1>
2.204

> <nHAcc>
0

> <MAXDP>
0.95

> <CIC0>
1.439

> <Log Koc Exp>
2.04

> <Log Koc Pred>
1.68

> <Hat>
0.061

> <Hat Cutoff>
0.161

> <ID Model>
44

> <Smiles>
CC(Cl)(Cl)Cl

$$$$
Endrin
  SciTegic03251110552D

 25 29  0  0  0  0            999 V2000
    0.0000    0.0000    0.0000 Cl  0  0
    0.0000    0.0000    0.0000 C   0  0
    0.0000    0.0000    0.0000 C   0  0
    0.0000    0.0000    0.0000 C   0  0
    0.0000    0.0000    0.0000 Cl  0  0
    0.0000    0.0000    0.0000 C   0  0
    0.0000    0.0000    0.0000 C   0  0
    0.0000    0.0000    0.0000 Cl  0  0
    0.0000    0.0000    0.0000 Cl  0  0
    0.0000    0.0000    0.0000 C   0  0
    0.0000    0.0000    0.0000 H   0  0
    0.0000    0.0000    0.0000 C   0  0
    0.0000    0.0000    0.0000 H   0  0
    0.0000    0.0000    0.0000 C   0  0
    0.0000    0.0000    0.0000 H   0  0
    0.0000    0.0000    0.0000 C   0  0
    0.0000    0.0000    0.0000 C   0  0
    0.0000    0.0000    0.0000 H   0  0
    0.0000    0.0000    0.0000 C   0  0
    0.0000    0.0000    0.0000 H   0  0
    0.0000    0.0000    0.0000 O   0  0
    0.0000    0.0000    0.0000 C   0  0
    0.0000    0.0000    0.0000 H   0  0
    0.0000    0.0000    0.0000 Cl  0  0
    0.0000    0.0000    0.0000 Cl  0  0
  1  2  1  0
  2  7  1  0
  2 12  1  0
  2  3  1  0
  3  4  2  3
  3 25  1  0
  4  5  1  0
  4  6  1  0
  6  7  1  0
  6 10  1  0
  6 24  1  0
  7  8  1  0
  7  9  1  0
 10 11  1  0
 10 17  1  0
 10 12  1  0
 12 13  1  0
 12 14  1  0
 14 15  1  0
 14 22  1  0
 14 16  1  0
 16 17  1  0
 17 18  1  0
 17 19  1  0
 19 20  1  0
 19 22  1  0
 19 21  1  0
 21 22  1  0
 22 23  1  0
M  END
> <Name>
Endrin

> <CAS>
000072-20-8

> <VED1>
4.302

> <nHAcc>
1

> <MAXDP>
2.713

> <CIC0>
3.057

> <Log Koc Exp>
4.08

> <Log Koc Pred>
4.67

> <Hat>
0.065

> <Hat Cutoff>
0.161

> <ID Model>
45

> <Smiles>
Cl[C@@]12C(=C(Cl)[C@@](C1(Cl)Cl)([C@@H]1[C@H]2[C@@H]2C[C@H]1[C@@H]1O[C@H]21)Cl)Cl

$$$$
Methoxychlor
  SciTegic03251110552D

 22 23  0  0  0  0            999 V2000
    0.0000    0.0000    0.0000 Cl  0  0
    0.0000    0.0000    0.0000 C   0  0
    0.0000    0.0000    0.0000 C   0  0
    0.0000    0.0000    0.0000 H   0  0
    0.0000    0.0000    0.0000 C   0  0
    0.0000    0.0000    0.0000 C   0  0
    0.0000    0.0000    0.0000 C   0  0
    0.0000    0.0000    0.0000 C   0  0
    0.0000    0.0000    0.0000 O   0  0
    0.0000    0.0000    0.0000 C   0  0
    0.0000    0.0000    0.0000 C   0  0
    0.0000    0.0000    0.0000 C   0  0
    0.0000    0.0000    0.0000 C   0  0
    0.0000    0.0000    0.0000 C   0  0
    0.0000    0.0000    0.0000 C   0  0
    0.0000    0.0000    0.0000 C   0  0
    0.0000    0.0000    0.0000 O   0  0
    0.0000    0.0000    0.0000 C   0  0
    0.0000    0.0000    0.0000 C   0  0
    0.0000    0.0000    0.0000 C   0  0
    0.0000    0.0000    0.0000 Cl  0  0
    0.0000    0.0000    0.0000 Cl  0  0
  1  2  1  0
  2  3  1  0
  2 21  1  0
  2 22  1  0
  3  4  1  0
  3  5  1  0
  3 13  1  0
  5 12  1  0
  5  6  2  3
  6  7  1  0
  7  8  2  3
  8  9  1  0
  8 11  1  0
  9 10  1  0
 11 12  2  3
 13 20  1  0
 13 14  2  3
 14 15  1  0
 15 16  2  3
 16 17  1  0
 16 19  1  0
 17 18  1  0
 19 20  2  3
M  END
> <Name>
Methoxychlor

> <CAS>
000072-43-5

> <VED1>
4.495

> <nHAcc>
2

> <MAXDP>
2.073

> <CIC0>
3.593

> <Log Koc Exp>
4.9

> <Log Koc Pred>
4.75

> <Hat>
0.053

> <Hat Cutoff>
0.161

> <ID Model>
46

> <Smiles>
ClC([C@H](c1ccc(OC)cc1)c1ccc(OC)cc1)(Cl)Cl

$$$$
4,4-DDD
  SciTegic03251110552D

 19 20  0  0  0  0            999 V2000
    0.0000    0.0000    0.0000 Cl  0  0
    0.0000    0.0000    0.0000 C   0  0
    0.0000    0.0000    0.0000 C   0  0
    0.0000    0.0000    0.0000 H   0  0
    0.0000    0.0000    0.0000 C   0  0
    0.0000    0.0000    0.0000 C   0  0
    0.0000    0.0000    0.0000 C   0  0
    0.0000    0.0000    0.0000 C   0  0
    0.0000    0.0000    0.0000 C   0  0
    0.0000    0.0000    0.0000 C   0  0
    0.0000    0.0000    0.0000 Cl  0  0
    0.0000    0.0000    0.0000 C   0  0
    0.0000    0.0000    0.0000 C   0  0
    0.0000    0.0000    0.0000 C   0  0
    0.0000    0.0000    0.0000 C   0  0
    0.0000    0.0000    0.0000 C   0  0
    0.0000    0.0000    0.0000 C   0  0
    0.0000    0.0000    0.0000 Cl  0  0
    0.0000    0.0000    0.0000 Cl  0  0
  1  2  1  0
  2  3  1  0
  2 19  1  0
  3  4  1  0
  3  5  1  0
  3 12  1  0
  5 10  1  0
  5  6  2  3
  6  7  1  0
  7  8  2  3
  8  9  1  0
  8 11  1  0
  9 10  2  3
 12 17  1  0
 12 13  2  3
 13 14  1  0
 14 15  2  3
 15 16  1  0
 15 18  1  0
 16 17  2  3
M  END
> <Name>
4,4-DDD

> <CAS>
000072-54-8

> <VED1>
4.173

> <nHAcc>
0

> <MAXDP>
1.981

> <CIC0>
3.376

> <Log Koc Exp>
4.8

> <Log Koc Pred>
4.85

> <Hat>
0.063

> <Hat Cutoff>
0.161

> <ID Model>
47

> <Smiles>
ClC([C@H](c1ccc(cc1)Cl)c1ccc(cc1)Cl)Cl

$$$$
Dichloromethane
  SciTegic03251110552D

  3  2  0  0  0  0            999 V2000
    0.0000    0.0000    0.0000 C   0  0
    0.0000    0.0000    0.0000 Cl  0  0
    0.0000    0.0000    0.0000 Cl  0  0
  1  2  1  0
  1  3  1  0
M  END
> <Name>
Dichloromethane

> <CAS>
000075-09-2

> <VED1>
1.716

> <nHAcc>
0

> <MAXDP>
0.653

> <CIC0>
0.8

> <Log Koc Exp>
1.44

> <Log Koc Pred>
0.95

> <Hat>
0.105

> <Hat Cutoff>
0.161

> <ID Model>
50

> <Smiles>
C(Cl)Cl

$$$$
Ethylene Oxide
  SciTegic03251110552D

  3  3  0  0  0  0            999 V2000
    0.0000    0.0000    0.0000 C   0  0
    0.0000    0.0000    0.0000 C   0  0
    0.0000    0.0000    0.0000 O   0  0
  1  3  1  0
  1  2  1  0
  2  3  1  0
M  END
> <Name>
Ethylene Oxide

> <CAS>
000075-21-8

> <VED1>
1.732

> <nHAcc>
1

> <MAXDP>
1

> <CIC0>
1.429

> <Log Koc Exp>
0.34

> <Log Koc Pred>
0.33

> <Hat>
0.093

> <Hat Cutoff>
0.161

> <ID Model>
51

> <Smiles>
C1CO1

$$$$
Tribromomethane
  SciTegic03251110552D

  4  3  0  0  0  0            999 V2000
    0.0000    0.0000    0.0000 C   0  0
    0.0000    0.0000    0.0000 Br  0  0
    0.0000    0.0000    0.0000 Br  0  0
    0.0000    0.0000    0.0000 Br  0  0
  1  2  1  0
  1  3  1  0
  1  4  1  0
M  END
> <Name>
Tribromomethane

> <CAS>
000075-25-2

> <VED1>
1.972

> <nHAcc>
0

> <MAXDP>
0.354

> <CIC0>
0.951

> <Log Koc Exp>
2.2

> <Log Koc Pred>
1.53

> <Hat>
0.096

> <Hat Cutoff>
0.161

> <ID Model>
52

> <Smiles>
C(Br)(Br)Br

$$$$
1,1-Dichloroethane
  SciTegic03251110552D

  4  3  0  0  0  0            999 V2000
    0.0000    0.0000    0.0000 C   0  0
    0.0000    0.0000    0.0000 C   0  0
    0.0000    0.0000    0.0000 Cl  0  0
    0.0000    0.0000    0.0000 Cl  0  0
  1  2  1  0
  2  3  1  0
  2  4  1  0
M  END
> <Name>
1,1-Dichloroethane

> <CAS>
000075-34-3

> <VED1>
1.972

> <nHAcc>
0

> <MAXDP>
0.929

> <CIC0>
1.5

> <Log Koc Exp>
1.48

> <Log Koc Pred>
1.17

> <Hat>
0.067

> <Hat Cutoff>
0.161

> <ID Model>
54

> <Smiles>
CC(Cl)Cl

$$$$
1,1-Dichloroethene
  SciTegic03251110552D

  4  3  0  0  0  0            999 V2000
    0.0000    0.0000    0.0000 C   0  0
    0.0000    0.0000    0.0000 C   0  0
    0.0000    0.0000    0.0000 Cl  0  0
    0.0000    0.0000    0.0000 Cl  0  0
  1  2  2  0
  2  3  1  0
  2  4  1  0
M  END
> <Name>
1,1-Dichloroethene

> <CAS>
000075-35-4

> <VED1>
1.972

> <nHAcc>
0

> <MAXDP>
0.735

> <CIC0>
1

> <Log Koc Exp>
1.81

> <Log Koc Pred>
1.4

> <Hat>
0.088

> <Hat Cutoff>
0.161

> <ID Model>
55

> <Smiles>
C=C(Cl)Cl

$$$$
Trichlorofluoromethane
  SciTegic03251110552D

  5  4  0  0  0  0            999 V2000
    0.0000    0.0000    0.0000 C   0  0
    0.0000    0.0000    0.0000 F   0  0
    0.0000    0.0000    0.0000 Cl  0  0
    0.0000    0.0000    0.0000 Cl  0  0
    0.0000    0.0000    0.0000 Cl  0  0
  1  2  1  0
  1  3  1  0
  1  4  1  0
  1  5  1  0
M  END
> <Name>
Trichlorofluoromethane

> <CAS>
000075-69-4

> <VED1>
2.204

> <nHAcc>
1

> <MAXDP>
2.984

> <CIC0>
0.951

> <Log Koc Exp>
2.2

> <Log Koc Pred>
0.87

> <Hat>
0.103

> <Hat Cutoff>
0.161

> <ID Model>
56

> <Smiles>
C(F)(Cl)(Cl)Cl

$$$$
Chloropicrin
  SciTegic03251110552D

  7  6  0  0  0  0            999 V2000
    0.0000    0.0000    0.0000 Cl  0  0
    0.0000    0.0000    0.0000 C   0  0
    0.0000    0.0000    0.0000 N   0  0
    0.0000    0.0000    0.0000 O   0  0
    0.0000    0.0000    0.0000 O   0  0
    0.0000    0.0000    0.0000 Cl  0  0
    0.0000    0.0000    0.0000 Cl  0  0
  1  2  1  0
  2  3  1  0
  2  6  1  0
  2  7  1  0
  3  4  1  0
  3  5  1  0
M  END
> <Name>
Chloropicrin

> <CAS>
000076-06-2

> <VED1>
2.607

> <nHAcc>
2

> <MAXDP>
2.431

> <CIC0>
0.965

> <Log Koc Exp>
1.79

> <Log Koc Pred>
1.55

> <Hat>
0.095

> <Hat Cutoff>
0.161

> <ID Model>
58

> <Smiles>
ClC(N(O)O)(Cl)Cl

$$$$
Heptachlor
  SciTegic03251110552D

 20 22  0  0  0  0            999 V2000
    0.0000    0.0000    0.0000 C   0  0
    0.0000    0.0000    0.0000 C   0  0
    0.0000    0.0000    0.0000 C   0  0
    0.0000    0.0000    0.0000 C   0  0
    0.0000    0.0000    0.0000 C   0  0
    0.0000    0.0000    0.0000 H   0  0
    0.0000    0.0000    0.0000 C   0  0
    0.0000    0.0000    0.0000 H   0  0
    0.0000    0.0000    0.0000 C   0  0
    0.0000    0.0000    0.0000 H   0  0
    0.0000    0.0000    0.0000 C   0  0
    0.0000    0.0000    0.0000 C   0  0
    0.0000    0.0000    0.0000 Cl  0  0
    0.0000    0.0000    0.0000 Cl  0  0
    0.0000    0.0000    0.0000 C   0  0
    0.0000    0.0000    0.0000 Cl  0  0
    0.0000    0.0000    0.0000 Cl  0  0
    0.0000    0.0000    0.0000 Cl  0  0
    0.0000    0.0000    0.0000 Cl  0  0
    0.0000    0.0000    0.0000 Cl  0  0
  1  7  1  0
  1 15  1  0
  1  2  1  0
  1 20  1  0
  2  3  2  3
  2 19  1  0
  3  4  1  0
  3 18  1  0
  4  5  1  0
  4 14  1  0
  4 15  1  0
  5  6  1  0
  5 12  1  0
  5  7  1  0
  7  8  1  0
  7  9  1  0
  9 10  1  0
  9 11  1  0
  9 13  1  0
 11 12  2  3
 15 16  1  0
 15 17  1  0
M  END
> <Name>
Heptachlor

> <CAS>
000076-44-8

> <VED1>
4.064

> <nHAcc>
0

> <MAXDP>
2.461

> <CIC0>
2.931

> <Log Koc Exp>
4.01

> <Log Koc Pred>
4.62

> <Hat>
0.073

> <Hat Cutoff>
0.161

> <ID Model>
59

> <Smiles>
[C@@]12(C(=C([C@@]([C@H]3[C@@H]1[C@H](C=C3)Cl)(Cl)C2(Cl)Cl)Cl)Cl)Cl

$$$$
Hexachlorocyclopentadiene
  SciTegic03251110552D

 11 11  0  0  0  0            999 V2000
    0.0000    0.0000    0.0000 Cl  0  0
    0.0000    0.0000    0.0000 C   0  0
    0.0000    0.0000    0.0000 C   0  0
    0.0000    0.0000    0.0000 C   0  0
    0.0000    0.0000    0.0000 C   0  0
    0.0000    0.0000    0.0000 C   0  0
    0.0000    0.0000    0.0000 Cl  0  0
    0.0000    0.0000    0.0000 Cl  0  0
    0.0000    0.0000    0.0000 Cl  0  0
    0.0000    0.0000    0.0000 Cl  0  0
    0.0000    0.0000    0.0000 Cl  0  0
  1  2  1  0
  2  6  1  0
  2  3  2  3
  3  4  1  0
  3 11  1  0
  4  5  2  3
  4 10  1  0
  5  6  1  0
  5  9  1  0
  6  7  1  0
  6  8  1  0
M  END
> <Name>
Hexachlorocyclopentadiene

> <CAS>
000077-47-4

> <VED1>
3.268

> <nHAcc>
0

> <MAXDP>
1.564

> <CIC0>
2.465

> <Log Koc Exp>
3.17

> <Log Koc Pred>
3.38

> <Hat>
0.035

> <Hat Cutoff>
0.161

> <ID Model>
60

> <Smiles>
ClC1=C(C(=C(C1(Cl)Cl)Cl)Cl)Cl

$$$$
Tribuphos
  SciTegic03251110552D

 17 16  0  0  0  0            999 V2000
    0.0000    0.0000    0.0000 P   0  0
    0.0000    0.0000    0.0000 O   0  0
    0.0000    0.0000    0.0000 S   0  0
    0.0000    0.0000    0.0000 C   0  0
    0.0000    0.0000    0.0000 C   0  0
    0.0000    0.0000    0.0000 C   0  0
    0.0000    0.0000    0.0000 C   0  0
    0.0000    0.0000    0.0000 S   0  0
    0.0000    0.0000    0.0000 C   0  0
    0.0000    0.0000    0.0000 C   0  0
    0.0000    0.0000    0.0000 C   0  0
    0.0000    0.0000    0.0000 C   0  0
    0.0000    0.0000    0.0000 C   0  0
    0.0000    0.0000    0.0000 S   0  0
    0.0000    0.0000    0.0000 C   0  0
    0.0000    0.0000    0.0000 C   0  0
    0.0000    0.0000    0.0000 C   0  0
  1  2  2  0
  1  3  1  0
  1  8  1  0
  1 13  1  0
  3  4  1  0
  4  5  1  0
  5  6  1  0
  6  7  1  0
  8  9  1  0
  9 10  1  0
 10 11  1  0
 11 12  1  0
 13 14  1  0
 14 15  1  0
 15 16  1  0
 16 17  1  0
M  END
> <Name>
Tribuphos

> <CAS>
000078-48-8

> <VED1>
4.032

> <nHAcc>
1

> <MAXDP>
5.743

> <CIC0>
4.004

> <Log Koc Exp>
3.7

> <Log Koc Pred>
2.85

> <Hat>
0.136

> <Hat Cutoff>
0.161

> <ID Model>
61

> <Smiles>
P(=O)(SCCCC)(SCCCC)CSCCC

$$$$
Isophorone
  SciTegic03251110552D

 10 10  0  0  0  0            999 V2000
    0.0000    0.0000    0.0000 C   0  0
    0.0000    0.0000    0.0000 C   0  0
    0.0000    0.0000    0.0000 C   0  0
    0.0000    0.0000    0.0000 O   0  0
    0.0000    0.0000    0.0000 C   0  0
    0.0000    0.0000    0.0000 C   0  0
    0.0000    0.0000    0.0000 C   0  0
    0.0000    0.0000    0.0000 C   0  0
    0.0000    0.0000    0.0000 C   0  0
    0.0000    0.0000    0.0000 C   0  0
  1  7  1  0
  1  2  2  3
  1 10  1  0
  2  3  1  0
  3  4  2  0
  3  5  1  0
  5  6  1  0
  6  7  1  0
  6  8  1  0
  6  9  1  0
M  END
> <Name>
Isophorone

> <CAS>
000078-59-1

> <VED1>
3.127

> <nHAcc>
1

> <MAXDP>
4.013

> <CIC0>
3.41

> <Log Koc Exp>
1.4

> <Log Koc Pred>
1.68

> <Hat>
0.074

> <Hat Cutoff>
0.161

> <ID Model>
62

> <Smiles>
C1(=CC(=O)CC(C1)(C)C)C

$$$$
1,2-Dichloropropane
  SciTegic03251110552D

  6  5  0  0  0  0            999 V2000
    0.0000    0.0000    0.0000 C   0  0
    0.0000    0.0000    0.0000 Cl  0  0
    0.0000    0.0000    0.0000 C   0  0
    0.0000    0.0000    0.0000 H   0  0
    0.0000    0.0000    0.0000 Cl  0  0
    0.0000    0.0000    0.0000 C   0  0
  1  2  1  0
  1  3  1  0
  3  4  1  0
  3  5  1  0
  3  6  1  0
M  END
> <Name>
1,2-Dichloropropane

> <CAS>
000078-87-5

> <VED1>
2.202

> <nHAcc>
0

> <MAXDP>
1.219

> <CIC0>
2.024

> <Log Koc Exp>
1.69

> <Log Koc Pred>
1.4

> <Hat>
0.052

> <Hat Cutoff>
0.161

> <ID Model>
63

> <Smiles>
C(Cl)[C@@H](Cl)C

$$$$
Trichloroethene
  SciTegic03251110552D

  5  4  0  0  0  0            999 V2000
    0.0000    0.0000    0.0000 C   0  0
    0.0000    0.0000    0.0000 C   0  0
    0.0000    0.0000    0.0000 Cl  0  0
    0.0000    0.0000    0.0000 Cl  0  0
    0.0000    0.0000    0.0000 Cl  0  0
  1  2  2  3
  1  5  1  0
  2  3  1  0
  2  4  1  0
M  END
> <Name>
Trichloroethene

> <CAS>
000079-01-6

> <VED1>
2.202

> <nHAcc>
0

> <MAXDP>
0.846

> <CIC0>
1.126

> <Log Koc Exp>
2.02

> <Log Koc Pred>
1.81

> <Hat>
0.08

> <Hat Cutoff>
0.161

> <ID Model>
65

> <Smiles>
C(=C(Cl)Cl)Cl

$$$$
1,1,2,2-Tetrachloroethane
  SciTegic03251110552D

  6  5  0  0  0  0            999 V2000
    0.0000    0.0000    0.0000 C   0  0
    0.0000    0.0000    0.0000 C   0  0
    0.0000    0.0000    0.0000 Cl  0  0
    0.0000    0.0000    0.0000 Cl  0  0
    0.0000    0.0000    0.0000 Cl  0  0
    0.0000    0.0000    0.0000 Cl  0  0
  1  2  1  0
  1  5  1  0
  1  6  1  0
  2  3  1  0
  2  4  1  0
M  END
> <Name>
1,1,2,2-Tetrachloroethane

> <CAS>
000079-34-5

> <VED1>
2.412

> <nHAcc>
0

> <MAXDP>
1.003

> <CIC0>
1.5

> <Log Koc Exp>
1.9

> <Log Koc Pred>
2.08

> <Hat>
0.058

> <Hat Cutoff>
0.161

> <ID Model>
66

> <Smiles>
C(C(Cl)Cl)(Cl)Cl

$$$$
Warfarin
  SciTegic03251110552D

 24 26  0  0  0  0            999 V2000
    0.0000    0.0000    0.0000 O   0  0
    0.0000    0.0000    0.0000 C   0  0
    0.0000    0.0000    0.0000 C   0  0
    0.0000    0.0000    0.0000 C   0  0
    0.0000    0.0000    0.0000 C   0  0
    0.0000    0.0000    0.0000 C   0  0
    0.0000    0.0000    0.0000 C   0  0
    0.0000    0.0000    0.0000 C   0  0
    0.0000    0.0000    0.0000 O   0  0
    0.0000    0.0000    0.0000 C   0  0
    0.0000    0.0000    0.0000 O   0  0
    0.0000    0.0000    0.0000 C   0  0
    0.0000    0.0000    0.0000 C   0  0
    0.0000    0.0000    0.0000 H   0  0
    0.0000    0.0000    0.0000 C   0  0
    0.0000    0.0000    0.0000 C   0  0
    0.0000    0.0000    0.0000 C   0  0
    0.0000    0.0000    0.0000 C   0  0
    0.0000    0.0000    0.0000 C   0  0
    0.0000    0.0000    0.0000 C   0  0
    0.0000    0.0000    0.0000 C   0  0
    0.0000    0.0000    0.0000 C   0  0
    0.0000    0.0000    0.0000 O   0  0
    0.0000    0.0000    0.0000 C   0  0
  1  2  1  0
  2 12  2  3
  2  3  1  0
  3  8  1  0
  3  4  2  3
  4  5  1  0
  5  6  2  3
  6  7  1  0
  7  8  2  3
  8  9  1  0
  9 10  1  0
 10 11  2  0
 10 12  1  0
 12 13  1  0
 13 14  1  0
 13 15  1  0
 13 21  1  0
 15 20  1  0
 15 16  2  3
 16 17  1  0
 17 18  2  3
 18 19  1  0
 19 20  2  3
 21 22  1  0
 22 23  2  0
 22 24  1  0
M  END
> <Name>
Warfarin

> <CAS>
000081-81-2

> <VED1>
4.723

> <nHAcc>
4

> <MAXDP>
5.412

> <CIC0>
3.916

> <Log Koc Exp>
2.96

> <Log Koc Pred>
3.42

> <Hat>
0.048

> <Hat Cutoff>
0.161

> <ID Model>
67

> <Smiles>
Oc1c2ccccc2oc(=O)c1[C@H](c1ccccc1)CC(=O)C

$$$$
1-Amino-2-methyl-9,10-Anthracenedione
  SciTegic03251110552D

 18 20  0  0  0  0            999 V2000
    0.0000    0.0000    0.0000 C   0  0
    0.0000    0.0000    0.0000 C   0  0
    0.0000    0.0000    0.0000 C   0  0
    0.0000    0.0000    0.0000 C   0  0
    0.0000    0.0000    0.0000 C   0  0
    0.0000    0.0000    0.0000 C   0  0
    0.0000    0.0000    0.0000 C   0  0
    0.0000    0.0000    0.0000 C   0  0
    0.0000    0.0000    0.0000 O   0  0
    0.0000    0.0000    0.0000 C   0  0
    0.0000    0.0000    0.0000 C   0  0
    0.0000    0.0000    0.0000 C   0  0
    0.0000    0.0000    0.0000 O   0  0
    0.0000    0.0000    0.0000 C   0  0
    0.0000    0.0000    0.0000 C   0  0
    0.0000    0.0000    0.0000 C   0  0
    0.0000    0.0000    0.0000 C   0  0
    0.0000    0.0000    0.0000 N   0  0
  1  2  1  0
  2  7  1  0
  2  3  2  3
  3  4  1  0
  3 18  1  0
  4 12  1  0
  4  5  2  3
  5  6  1  0
  5  8  1  0
  6  7  2  3
  8  9  2  0
  8 10  1  0
 10 17  1  0
 10 11  2  3
 11 12  1  0
 11 14  1  0
 12 13  2  0
 14 15  2  3
 15 16  1  0
 16 17  2  3
M  END
> <Name>
1-Amino-2-methyl-9,10-Anthracenedione

> <CAS>
000082-28-0

> <VED1>
4.19

> <nHAcc>
3

> <MAXDP>
5.394

> <CIC0>
3.402

> <Log Koc Exp>
3.9

> <Log Koc Pred>
2.82

> <Hat>
0.052

> <Hat Cutoff>
0.161

> <ID Model>
68

> <Smiles>
Cc1c(c2c(cc1)C(=O)c1c(C2=O)cccc1)N

$$$$
Pentachloronitrobenzene
  SciTegic03251110552D

 14 14  0  0  0  0            999 V2000
    0.0000    0.0000    0.0000 O   0  0
    0.0000    0.0000    0.0000 N   0  0
    0.0000    0.0000    0.0000 O   0  0
    0.0000    0.0000    0.0000 C   0  0
    0.0000    0.0000    0.0000 C   0  0
    0.0000    0.0000    0.0000 C   0  0
    0.0000    0.0000    0.0000 C   0  0
    0.0000    0.0000    0.0000 C   0  0
    0.0000    0.0000    0.0000 C   0  0
    0.0000    0.0000    0.0000 Cl  0  0
    0.0000    0.0000    0.0000 Cl  0  0
    0.0000    0.0000    0.0000 Cl  0  0
    0.0000    0.0000    0.0000 Cl  0  0
    0.0000    0.0000    0.0000 Cl  0  0
  1  2  1  0
  2  3  1  0
  2  4  1  0
  4  9  1  0
  4  5  2  3
  5  6  1  0
  5 14  1  0
  6  7  2  3
  6 13  1  0
  7  8  1  0
  7 12  1  0
  8  9  2  3
  8 11  1  0
  9 10  1  0
M  END
> <Name>
Pentachloronitrobenzene

> <CAS>
000082-68-8

> <VED1>
3.689

> <nHAcc>
2

> <MAXDP>
3.535

> <CIC0>
2.08

> <Log Koc Exp>
4.56

> <Log Koc Pred>
3.11

> <Hat>
0.064

> <Hat Cutoff>
0.161

> <ID Model>
69

> <Smiles>
ON(O)c1c(c(c(c(c1Cl)Cl)Cl)Cl)Cl

$$$$
9,10-Anthracenedione
  SciTegic03251110552D

 16 18  0  0  0  0            999 V2000
    0.0000    0.0000    0.0000 C   0  0
    0.0000    0.0000    0.0000 C   0  0
    0.0000    0.0000    0.0000 C   0  0
    0.0000    0.0000    0.0000 C   0  0
    0.0000    0.0000    0.0000 C   0  0
    0.0000    0.0000    0.0000 C   0  0
    0.0000    0.0000    0.0000 C   0  0
    0.0000    0.0000    0.0000 O   0  0
    0.0000    0.0000    0.0000 C   0  0
    0.0000    0.0000    0.0000 C   0  0
    0.0000    0.0000    0.0000 C   0  0
    0.0000    0.0000    0.0000 O   0  0
    0.0000    0.0000    0.0000 C   0  0
    0.0000    0.0000    0.0000 C   0  0
    0.0000    0.0000    0.0000 C   0  0
    0.0000    0.0000    0.0000 C   0  0
  1  6  1  0
  1  2  2  3
  2  3  1  0
  3  4  2  3
  4 11  1  0
  4  5  1  0
  5  6  2  3
  5  7  1  0
  7  8  2  0
  7  9  1  0
  9 16  1  0
  9 10  2  3
 10 11  1  0
 10 13  1  0
 11 12  2  0
 13 14  2  3
 14 15  1  0
 15 16  2  3
M  END
> <Name>
9,10-Anthracenedione

> <CAS>
000084-65-1

> <VED1>
3.954

> <nHAcc>
2

> <MAXDP>
5.101

> <CIC0>
3.304

> <Log Koc Exp>
3.57

> <Log Koc Pred>
2.78

> <Hat>
0.061

> <Hat Cutoff>
0.161

> <ID Model>
71

> <Smiles>
c1ccc2c(c1)C(=O)c1c(C2=O)cccc1

$$$$
Diethyl phthalate
  SciTegic03251110552D

 16 16  0  0  0  0            999 V2000
    0.0000    0.0000    0.0000 C   0  0
    0.0000    0.0000    0.0000 C   0  0
    0.0000    0.0000    0.0000 C   0  0
    0.0000    0.0000    0.0000 C   0  0
    0.0000    0.0000    0.0000 C   0  0
    0.0000    0.0000    0.0000 C   0  0
    0.0000    0.0000    0.0000 C   0  0
    0.0000    0.0000    0.0000 O   0  0
    0.0000    0.0000    0.0000 O   0  0
    0.0000    0.0000    0.0000 C   0  0
    0.0000    0.0000    0.0000 C   0  0
    0.0000    0.0000    0.0000 C   0  0
    0.0000    0.0000    0.0000 O   0  0
    0.0000    0.0000    0.0000 O   0  0
    0.0000    0.0000    0.0000 C   0  0
    0.0000    0.0000    0.0000 C   0  0
  1  6  1  0
  1  2  2  3
  2  3  1  0
  3  4  2  3
  4  5  1  0
  4 12  1  0
  5  6  2  3
  5  7  1  0
  7  8  2  0
  7  9  1  0
  9 10  1  0
 10 11  1  0
 12 13  2  0
 12 14  1  0
 14 15  1  0
 15 16  1  0
M  END
> <Name>
Diethyl phthalate

> <CAS>
000084-66-2

> <VED1>
3.926

> <nHAcc>
4

> <MAXDP>
4.544

> <CIC0>
3.477

> <Log Koc Exp>
1.84

> <Log Koc Pred>
2.16

> <Hat>
0.025

> <Hat Cutoff>
0.161

> <ID Model>
72

> <Smiles>
c1ccc(c(c1)C(=O)OCC)C(=O)OCC

$$$$
Diisobutyl phthalate
  SciTegic03251110552D

 20 20  0  0  0  0            999 V2000
    0.0000    0.0000    0.0000 C   0  0
    0.0000    0.0000    0.0000 C   0  0
    0.0000    0.0000    0.0000 C   0  0
    0.0000    0.0000    0.0000 C   0  0
    0.0000    0.0000    0.0000 C   0  0
    0.0000    0.0000    0.0000 C   0  0
    0.0000    0.0000    0.0000 C   0  0
    0.0000    0.0000    0.0000 O   0  0
    0.0000    0.0000    0.0000 O   0  0
    0.0000    0.0000    0.0000 C   0  0
    0.0000    0.0000    0.0000 C   0  0
    0.0000    0.0000    0.0000 C   0  0
    0.0000    0.0000    0.0000 C   0  0
    0.0000    0.0000    0.0000 C   0  0
    0.0000    0.0000    0.0000 O   0  0
    0.0000    0.0000    0.0000 O   0  0
    0.0000    0.0000    0.0000 C   0  0
    0.0000    0.0000    0.0000 C   0  0
    0.0000    0.0000    0.0000 C   0  0
    0.0000    0.0000    0.0000 C   0  0
  1  6  1  0
  1  2  2  3
  2  3  1  0
  2 14  1  0
  3  4  2  3
  3  7  1  0
  4  5  1  0
  5  6  2  3
  7  8  2  0
  7  9  1  0
  9 10  1  0
 10 11  1  0
 11 12  1  0
 11 13  1  0
 14 15  2  0
 14 16  1  0
 16 17  1  0
 17 18  1  0
 18 19  1  0
 18 20  1  0
M  END
> <Name>
Diisobutyl phthalate

> <CAS>
000084-69-5

> <VED1>
4.391

> <nHAcc>
4

> <MAXDP>
4.983

> <CIC0>
4.05

> <Log Koc Exp>
3.14

> <Log Koc Pred>
2.81

> <Hat>
0.042

> <Hat Cutoff>
0.161

> <ID Model>
73

> <Smiles>
c1c(c(ccc1)C(=O)OCC(C)C)C(=O)OCC(C)C

$$$$
Di-n-butyl phthalate
  SciTegic03251110552D

 20 20  0  0  0  0            999 V2000
    0.0000    0.0000    0.0000 C   0  0
    0.0000    0.0000    0.0000 O   0  0
    0.0000    0.0000    0.0000 C   0  0
    0.0000    0.0000    0.0000 C   0  0
    0.0000    0.0000    0.0000 C   0  0
    0.0000    0.0000    0.0000 C   0  0
    0.0000    0.0000    0.0000 C   0  0
    0.0000    0.0000    0.0000 C   0  0
    0.0000    0.0000    0.0000 C   0  0
    0.0000    0.0000    0.0000 O   0  0
    0.0000    0.0000    0.0000 O   0  0
    0.0000    0.0000    0.0000 C   0  0
    0.0000    0.0000    0.0000 C   0  0
    0.0000    0.0000    0.0000 C   0  0
    0.0000    0.0000    0.0000 C   0  0
    0.0000    0.0000    0.0000 O   0  0
    0.0000    0.0000    0.0000 C   0  0
    0.0000    0.0000    0.0000 C   0  0
    0.0000    0.0000    0.0000 C   0  0
    0.0000    0.0000    0.0000 C   0  0
  1  2  2  0
  1  3  1  0
  1 16  1  0
  3  8  1  0
  3  4  2  3
  4  5  1  0
  5  6  2  3
  6  7  1  0
  7  8  2  3
  8  9  1  0
  9 10  2  0
  9 11  1  0
 11 12  1  0
 12 13  1  0
 13 14  1  0
 14 15  1  0
 16 17  1  0
 17 18  1  0
 18 19  1  0
 19 20  1  0
M  END
> <Name>
Di-n-butyl phthalate

> <CAS>
000084-74-2

> <VED1>
4.378

> <nHAcc>
4

> <MAXDP>
4.945

> <CIC0>
4.05

> <Log Koc Exp>
3.14

> <Log Koc Pred>
2.8

> <Hat>
0.041

> <Hat Cutoff>
0.161

> <ID Model>
74

> <Smiles>
C(=O)(c1ccccc1C(=O)OCCCC)OCCCC

$$$$
Di-n-hexyl phthalate
  SciTegic03251110552D

 24 24  0  0  0  0            999 V2000
    0.0000    0.0000    0.0000 C   0  0
    0.0000    0.0000    0.0000 O   0  0
    0.0000    0.0000    0.0000 C   0  0
    0.0000    0.0000    0.0000 C   0  0
    0.0000    0.0000    0.0000 C   0  0
    0.0000    0.0000    0.0000 C   0  0
    0.0000    0.0000    0.0000 C   0  0
    0.0000    0.0000    0.0000 C   0  0
    0.0000    0.0000    0.0000 C   0  0
    0.0000    0.0000    0.0000 O   0  0
    0.0000    0.0000    0.0000 O   0  0
    0.0000    0.0000    0.0000 C   0  0
    0.0000    0.0000    0.0000 C   0  0
    0.0000    0.0000    0.0000 C   0  0
    0.0000    0.0000    0.0000 C   0  0
    0.0000    0.0000    0.0000 C   0  0
    0.0000    0.0000    0.0000 C   0  0
    0.0000    0.0000    0.0000 O   0  0
    0.0000    0.0000    0.0000 C   0  0
    0.0000    0.0000    0.0000 C   0  0
    0.0000    0.0000    0.0000 C   0  0
    0.0000    0.0000    0.0000 C   0  0
    0.0000    0.0000    0.0000 C   0  0
    0.0000    0.0000    0.0000 C   0  0
  1  2  2  0
  1  3  1  0
  1 18  1  0
  3  8  1  0
  3  4  2  3
  4  5  1  0
  5  6  2  3
  6  7  1  0
  7  8  2  3
  8  9  1  0
  9 10  2  0
  9 11  1  0
 11 12  1  0
 12 13  1  0
 13 14  1  0
 14 15  1  0
 15 16  1  0
 16 17  1  0
 18 19  1  0
 19 20  1  0
 20 21  1  0
 21 22  1  0
 22 23  1  0
 23 24  1  0
M  END
> <Name>
Di-n-hexyl phthalate

> <CAS>
000084-75-3

> <VED1>
4.792

> <nHAcc>
4

> <MAXDP>
5.188

> <CIC0>
4.475

> <Log Koc Exp>
4.72

> <Log Koc Pred>
3.45

> <Hat>
0.061

> <Hat Cutoff>
0.161

> <ID Model>
75

> <Smiles>
C(=O)(c1ccccc1C(=O)OCCCCCC)OCCCCCC

$$$$
Phenanthrene
  SciTegic03251110552D

 14 16  0  0  0  0            999 V2000
    0.0000    0.0000    0.0000 C   0  0
    0.0000    0.0000    0.0000 C   0  0
    0.0000    0.0000    0.0000 C   0  0
    0.0000    0.0000    0.0000 C   0  0
    0.0000    0.0000    0.0000 C   0  0
    0.0000    0.0000    0.0000 C   0  0
    0.0000    0.0000    0.0000 C   0  0
    0.0000    0.0000    0.0000 C   0  0
    0.0000    0.0000    0.0000 C   0  0
    0.0000    0.0000    0.0000 C   0  0
    0.0000    0.0000    0.0000 C   0  0
    0.0000    0.0000    0.0000 C   0  0
    0.0000    0.0000    0.0000 C   0  0
    0.0000    0.0000    0.0000 C   0  0
  1  6  1  0
  1  2  2  3
  2  3  1  0
  3  4  2  3
  4 10  1  0
  4  5  1  0
  5  6  2  3
  5  7  1  0
  7 14  1  0
  7  8  2  3
  8  9  1  0
  8 11  1  0
  9 10  2  3
 11 12  2  3
 12 13  1  0
 13 14  2  3
M  END
> <Name>
Phenanthrene

> <CAS>
000085-01-8

> <VED1>
3.703

> <nHAcc>
0

> <MAXDP>
0.178

> <CIC0>
3.605

> <Log Koc Exp>
4.32

> <Log Koc Pred>
4.35

> <Hat>
0.077

> <Hat Cutoff>
0.161

> <ID Model>
76

> <Smiles>
c1ccc2c(c1)c1c(cc2)cccc1

$$$$
Benzo[f]quinoline
  SciTegic03251110552D

 14 16  0  0  0  0            999 V2000
    0.0000    0.0000    0.0000 C   0  0
    0.0000    0.0000    0.0000 C   0  0
    0.0000    0.0000    0.0000 C   0  0
    0.0000    0.0000    0.0000 C   0  0
    0.0000    0.0000    0.0000 C   0  0
    0.0000    0.0000    0.0000 C   0  0
    0.0000    0.0000    0.0000 C   0  0
    0.0000    0.0000    0.0000 C   0  0
    0.0000    0.0000    0.0000 C   0  0
    0.0000    0.0000    0.0000 C   0  0
    0.0000    0.0000    0.0000 N   0  0
    0.0000    0.0000    0.0000 C   0  0
    0.0000    0.0000    0.0000 C   0  0
    0.0000    0.0000    0.0000 C   0  0
  1  6  1  0
  1  2  2  3
  2  3  1  0
  3 10  1  0
  3  4  2  3
  4  5  1  0
  4  7  1  0
  5  6  2  3
  7 14  1  0
  7  8  2  3
  8  9  1  0
  8 11  1  0
  9 10  2  3
 11 12  2  3
 12 13  1  0
 13 14  2  3
M  END
> <Name>
Benzo[f]quinoline

> <CAS>
000085-02-9

> <VED1>
3.703

> <nHAcc>
1

> <MAXDP>
1.331

> <CIC0>
3.332

> <Log Koc Exp>
4.81

> <Log Koc Pred>
3.74

> <Hat>
0.035

> <Hat Cutoff>
0.161

> <ID Model>
77

> <Smiles>
c1cc2c(cc1)c1c(cc2)nccc1

$$$$
Pentabromoethylbenzene
  SciTegic03251110552D

 13 13  0  0  0  0            999 V2000
    0.0000    0.0000    0.0000 C   0  0
    0.0000    0.0000    0.0000 C   0  0
    0.0000    0.0000    0.0000 C   0  0
    0.0000    0.0000    0.0000 C   0  0
    0.0000    0.0000    0.0000 C   0  0
    0.0000    0.0000    0.0000 C   0  0
    0.0000    0.0000    0.0000 Br  0  0
    0.0000    0.0000    0.0000 Br  0  0
    0.0000    0.0000    0.0000 Br  0  0
    0.0000    0.0000    0.0000 Br  0  0
    0.0000    0.0000    0.0000 C   0  0
    0.0000    0.0000    0.0000 C   0  0
    0.0000    0.0000    0.0000 Br  0  0
  1  6  1  0
  1  2  2  3
  1 13  1  0
  2  3  1  0
  2 11  1  0
  3  4  2  3
  3 10  1  0
  4  5  1  0
  4  9  1  0
  5  6  2  3
  5  8  1  0
  6  7  1  0
 11 12  1  0
M  END
> <Name>
Pentabromoethylbenzene

> <CAS>
000085-22-3

> <VED1>
3.553

> <nHAcc>
0

> <MAXDP>
0.798

> <CIC0>
2.623

> <Log Koc Exp>
4.92

> <Log Koc Pred>
4.16

> <Hat>
0.055

> <Hat Cutoff>
0.161

> <ID Model>
78

> <Smiles>
c1(c(c(c(c(c1Br)Br)Br)Br)CC)Br

$$$$
1,3-Isobenzofurandione
  SciTegic03251110552D

 11 12  0  0  0  0            999 V2000
    0.0000    0.0000    0.0000 C   0  0
    0.0000    0.0000    0.0000 C   0  0
    0.0000    0.0000    0.0000 C   0  0
    0.0000    0.0000    0.0000 C   0  0
    0.0000    0.0000    0.0000 C   0  0
    0.0000    0.0000    0.0000 C   0  0
    0.0000    0.0000    0.0000 C   0  0
    0.0000    0.0000    0.0000 O   0  0
    0.0000    0.0000    0.0000 O   0  0
    0.0000    0.0000    0.0000 C   0  0
    0.0000    0.0000    0.0000 O   0  0
  1  6  1  0
  1  2  2  3
  2  3  1  0
  3  4  2  3
  4  5  1  0
  5 10  1  0
  5  6  2  3
  6  7  1  0
  7  8  2  0
  7  9  1  0
  9 10  1  0
 10 11  2  0
M  END
> <Name>
1,3-Isobenzofurandione

> <CAS>
000085-44-9

> <VED1>
3.278

> <nHAcc>
3

> <MAXDP>
3.833

> <CIC0>
2.45

> <Log Koc Exp>
1.56

> <Log Koc Pred>
1.7

> <Hat>
0.023

> <Hat Cutoff>
0.161

> <ID Model>
80

> <Smiles>
c1cccc2c1C(=O)OC2=O

$$$$
n-Butyl benzyl phthalate
  SciTegic03251110552D

 23 24  0  0  0  0            999 V2000
    0.0000    0.0000    0.0000 C   0  0
    0.0000    0.0000    0.0000 C   0  0
    0.0000    0.0000    0.0000 C   0  0
    0.0000    0.0000    0.0000 C   0  0
    0.0000    0.0000    0.0000 C   0  0
    0.0000    0.0000    0.0000 C   0  0
    0.0000    0.0000    0.0000 C   0  0
    0.0000    0.0000    0.0000 O   0  0
    0.0000    0.0000    0.0000 C   0  0
    0.0000    0.0000    0.0000 O   0  0
    0.0000    0.0000    0.0000 C   0  0
    0.0000    0.0000    0.0000 C   0  0
    0.0000    0.0000    0.0000 C   0  0
    0.0000    0.0000    0.0000 C   0  0
    0.0000    0.0000    0.0000 C   0  0
    0.0000    0.0000    0.0000 C   0  0
    0.0000    0.0000    0.0000 C   0  0
    0.0000    0.0000    0.0000 O   0  0
    0.0000    0.0000    0.0000 O   0  0
    0.0000    0.0000    0.0000 C   0  0
    0.0000    0.0000    0.0000 C   0  0
    0.0000    0.0000    0.0000 C   0  0
    0.0000    0.0000    0.0000 C   0  0
  1  6  1  0
  1  2  2  3
  2  3  1  0
  3  4  2  3
  4  5  1  0
  5  6  2  3
  6  7  1  0
  7  8  1  0
  8  9  1  0
  9 10  2  0
  9 11  1  0
 11 16  1  0
 11 12  2  3
 12 13  1  0
 13 14  2  3
 14 15  1  0
 15 16  2  3
 16 17  1  0
 17 18  2  0
 17 19  1  0
 19 20  1  0
 20 21  1  0
 21 22  1  0
 22 23  1  0
M  END
> <Name>
n-Butyl benzyl phthalate

> <CAS>
000085-68-7

> <VED1>
4.71

> <nHAcc>
4

> <MAXDP>
5.243

> <CIC0>
4.073

> <Log Koc Exp>
3.72

> <Log Koc Pred>
3.4

> <Hat>
0.046

> <Hat Cutoff>
0.161

> <ID Model>
81

> <Smiles>
c1ccccc1COC(=O)c1ccccc1C(=O)OCCCC

$$$$
N-Nitrosodiphenylamine
  SciTegic03251110552D

 15 16  0  0  0  0            999 V2000
    0.0000    0.0000    0.0000 C   0  0
    0.0000    0.0000    0.0000 C   0  0
    0.0000    0.0000    0.0000 C   0  0
    0.0000    0.0000    0.0000 C   0  0
    0.0000    0.0000    0.0000 C   0  0
    0.0000    0.0000    0.0000 C   0  0
    0.0000    0.0000    0.0000 N   0  0
    0.0000    0.0000    0.0000 N   0  0
    0.0000    0.0000    0.0000 O   0  0
    0.0000    0.0000    0.0000 C   0  0
    0.0000    0.0000    0.0000 C   0  0
    0.0000    0.0000    0.0000 C   0  0
    0.0000    0.0000    0.0000 C   0  0
    0.0000    0.0000    0.0000 C   0  0
    0.0000    0.0000    0.0000 C   0  0
  1  6  1  0
  1  2  2  3
  1  7  1  0
  2  3  1  0
  3  4  2  3
  4  5  1  0
  5  6  2  3
  7  8  1  0
  7 10  1  0
  8  9  2  0
 10 15  1  0
 10 11  2  3
 11 12  1  0
 12 13  2  3
 13 14  1  0
 14 15  2  3
M  END
> <Name>
N-Nitrosodiphenylamine

> <CAS>
000086-30-6

> <VED1>
3.819

> <nHAcc>
3

> <MAXDP>
3.782

> <CIC0>
3.13

> <Log Koc Exp>
3.08

> <Log Koc Pred>
2.62

> <Hat>
0.013

> <Hat Cutoff>
0.161

> <ID Model>
83

> <Smiles>
c1(ccccc1)N(N=O)c1ccccc1

$$$$
Azinphos methyl
  SciTegic03251110552D

 19 20  0  0  0  0            999 V2000
    0.0000    0.0000    0.0000 C   0  0
    0.0000    0.0000    0.0000 O   0  0
    0.0000    0.0000    0.0000 P   0  0
    0.0000    0.0000    0.0000 S   0  0
    0.0000    0.0000    0.0000 O   0  0
    0.0000    0.0000    0.0000 C   0  0
    0.0000    0.0000    0.0000 S   0  0
    0.0000    0.0000    0.0000 C   0  0
    0.0000    0.0000    0.0000 N   0  0
    0.0000    0.0000    0.0000 N   0  0
    0.0000    0.0000    0.0000 N   0  0
    0.0000    0.0000    0.0000 C   0  0
    0.0000    0.0000    0.0000 C   0  0
    0.0000    0.0000    0.0000 C   0  0
    0.0000    0.0000    0.0000 C   0  0
    0.0000    0.0000    0.0000 C   0  0
    0.0000    0.0000    0.0000 C   0  0
    0.0000    0.0000    0.0000 C   0  0
    0.0000    0.0000    0.0000 O   0  0
  1  2  1  0
  2  3  1  0
  3  4  2  0
  3  5  1  0
  3  7  1  0
  5  6  1  0
  7  8  1  0
  8  9  1  0
  9 18  1  0
  9 10  1  0
 10 11  2  3
 11 12  1  0
 12 17  1  0
 12 13  2  3
 13 14  1  0
 14 15  2  3
 15 16  1  0
 16 17  2  3
 17 18  1  0
 18 19  2  0
M  END
> <Name>
Azinphos methyl

> <CAS>
000086-50-0

> <VED1>
4.299

> <nHAcc>
6

> <MAXDP>
5.166

> <CIC0>
2.831

> <Log Koc Exp>
2.64

> <Log Koc Pred>
2.29

> <Hat>
0.041

> <Hat Cutoff>
0.161

> <ID Model>
84

> <Smiles>
COP(=S)(OC)SCn1nnc2ccccc2c1=O

$$$$
Fluorene
  SciTegic03251110552D

 13 15  0  0  0  0            999 V2000
    0.0000    0.0000    0.0000 C   0  0
    0.0000    0.0000    0.0000 C   0  0
    0.0000    0.0000    0.0000 C   0  0
    0.0000    0.0000    0.0000 C   0  0
    0.0000    0.0000    0.0000 C   0  0
    0.0000    0.0000    0.0000 C   0  0
    0.0000    0.0000    0.0000 C   0  0
    0.0000    0.0000    0.0000 C   0  0
    0.0000    0.0000    0.0000 C   0  0
    0.0000    0.0000    0.0000 C   0  0
    0.0000    0.0000    0.0000 C   0  0
    0.0000    0.0000    0.0000 C   0  0
    0.0000    0.0000    0.0000 C   0  0
  1  6  1  0
  1  2  2  3
  2  3  1  0
  3  9  1  0
  3  4  2  3
  4  5  1  0
  4  7  1  0
  5  6  2  3
  7 13  1  0
  7  8  2  3
  8  9  1  0
  8 10  1  0
 10 11  2  3
 11 12  1  0
 12 13  2  3
M  END
> <Name>
Fluorene

> <CAS>
000086-73-7

> <VED1>
3.568

> <nHAcc>
0

> <MAXDP>
0.218

> <CIC0>
3.536

> <Log Koc Exp>
3.69

> <Log Koc Pred>
4.07

> <Hat>
0.071

> <Hat Cutoff>
0.161

> <ID Model>
85

> <Smiles>
c1cc2c(cc1)c1c(C2)cccc1

$$$$
1-Naphthalene acetic acid
  SciTegic03251110552D

 14 15  0  0  0  0            999 V2000
    0.0000    0.0000    0.0000 C   0  0
    0.0000    0.0000    0.0000 C   0  0
    0.0000    0.0000    0.0000 C   0  0
    0.0000    0.0000    0.0000 C   0  0
    0.0000    0.0000    0.0000 C   0  0
    0.0000    0.0000    0.0000 C   0  0
    0.0000    0.0000    0.0000 C   0  0
    0.0000    0.0000    0.0000 C   0  0
    0.0000    0.0000    0.0000 C   0  0
    0.0000    0.0000    0.0000 C   0  0
    0.0000    0.0000    0.0000 C   0  0
    0.0000    0.0000    0.0000 C   0  0
    0.0000    0.0000    0.0000 O   0  0
    0.0000    0.0000    0.0000 O   0  0
  1  6  1  0
  1  2  2  3
  2  3  1  0
  3  4  2  3
  4 10  1  0
  4  5  1  0
  5  6  2  3
  5  7  1  0
  7  8  2  3
  8  9  1  0
  9 10  2  3
 10 11  1  0
 11 12  1  0
 12 13  2  0
 12 14  1  0
M  END
> <Name>
1-Naphthalene acetic acid

> <CAS>
000086-87-3

> <VED1>
3.69

> <nHAcc>
2

> <MAXDP>
3.612

> <CIC0>
3.26

> <Log Koc Exp>
2.25

> <Log Koc Pred>
2.7

> <Hat>
0.02

> <Hat Cutoff>
0.161

> <ID Model>
88

> <Smiles>
c1ccc2c(c1)cccc2CC(=O)O

$$$$
1,2,3-Trichlorobenzene
  SciTegic03251110552D

  9  9  0  0  0  0            999 V2000
    0.0000    0.0000    0.0000 Cl  0  0
    0.0000    0.0000    0.0000 C   0  0
    0.0000    0.0000    0.0000 C   0  0
    0.0000    0.0000    0.0000 C   0  0
    0.0000    0.0000    0.0000 C   0  0
    0.0000    0.0000    0.0000 C   0  0
    0.0000    0.0000    0.0000 C   0  0
    0.0000    0.0000    0.0000 Cl  0  0
    0.0000    0.0000    0.0000 Cl  0  0
  1  2  1  0
  2  7  1  0
  2  3  2  3
  3  4  1  0
  3  9  1  0
  4  5  2  3
  5  6  1  0
  6  7  2  3
  7  8  1  0
M  END
> <Name>
1,2,3-Trichlorobenzene

> <CAS>
000087-61-6

> <VED1>
2.968

> <nHAcc>
0

> <MAXDP>
1.503

> <CIC0>
2.085

> <Log Koc Exp>
3.29

> <Log Koc Pred>
2.9

> <Hat>
0.039

> <Hat Cutoff>
0.161

> <ID Model>
89

> <Smiles>
Clc1c(cccc1Cl)Cl

$$$$
Pentachlorophenol
  SciTegic03251110552D

 12 12  0  0  0  0            999 V2000
    0.0000    0.0000    0.0000 Cl  0  0
    0.0000    0.0000    0.0000 C   0  0
    0.0000    0.0000    0.0000 C   0  0
    0.0000    0.0000    0.0000 Cl  0  0
    0.0000    0.0000    0.0000 C   0  0
    0.0000    0.0000    0.0000 C   0  0
    0.0000    0.0000    0.0000 C   0  0
    0.0000    0.0000    0.0000 C   0  0
    0.0000    0.0000    0.0000 Cl  0  0
    0.0000    0.0000    0.0000 Cl  0  0
    0.0000    0.0000    0.0000 Cl  0  0
    0.0000    0.0000    0.0000 O   0  0
  1  2  1  0
  2  8  1  0
  2  3  2  3
  3  4  1  0
  3  5  1  0
  5  6  2  3
  5 12  1  0
  6  7  1  0
  6 11  1  0
  7  8  2  3
  7 10  1  0
  8  9  1  0
M  END
> <Name>
Pentachlorophenol

> <CAS>
000087-86-5

> <VED1>
3.419

> <nHAcc>
1

> <MAXDP>
3.201

> <CIC0>
2.086

> <Log Koc Exp>
3.34

> <Log Koc Pred>
2.98

> <Hat>
0.058

> <Hat Cutoff>
0.161

> <ID Model>
90

> <Smiles>
Clc1c(Cl)c(c(c(c1Cl)Cl)Cl)O

$$$$
2,4,6-Trichlorophenol
  SciTegic03251110552D

 10 10  0  0  0  0            999 V2000
    0.0000    0.0000    0.0000 C   0  0
    0.0000    0.0000    0.0000 C   0  0
    0.0000    0.0000    0.0000 C   0  0
    0.0000    0.0000    0.0000 C   0  0
    0.0000    0.0000    0.0000 C   0  0
    0.0000    0.0000    0.0000 C   0  0
    0.0000    0.0000    0.0000 Cl  0  0
    0.0000    0.0000    0.0000 Cl  0  0
    0.0000    0.0000    0.0000 Cl  0  0
    0.0000    0.0000    0.0000 O   0  0
  1  6  1  0
  1  2  2  3
  1 10  1  0
  2  3  1  0
  2  9  1  0
  3  4  2  3
  4  5  1  0
  4  8  1  0
  5  6  2  3
  6  7  1  0
M  END
> <Name>
2,4,6-Trichlorophenol

> <CAS>
000088-06-2

> <VED1>
3.123

> <nHAcc>
1

> <MAXDP>
3.008

> <CIC0>
1.925

> <Log Koc Exp>
3.03

> <Log Koc Pred>
2.47

> <Hat>
0.05

> <Hat Cutoff>
0.161

> <ID Model>
91

> <Smiles>
c1(c(cc(cc1Cl)Cl)Cl)O

$$$$
2-Nitrophenol
  SciTegic03251110552D

 10 10  0  0  0  0            999 V2000
    0.0000    0.0000    0.0000 C   0  0
    0.0000    0.0000    0.0000 C   0  0
    0.0000    0.0000    0.0000 C   0  0
    0.0000    0.0000    0.0000 C   0  0
    0.0000    0.0000    0.0000 C   0  0
    0.0000    0.0000    0.0000 C   0  0
    0.0000    0.0000    0.0000 N   0  0
    0.0000    0.0000    0.0000 O   0  0
    0.0000    0.0000    0.0000 O   0  0
    0.0000    0.0000    0.0000 O   0  0
  1  6  1  0
  1  2  2  3
  2  3  1  0
  3  4  2  3
  3 10  1  0
  4  5  1  0
  4  7  1  0
  5  6  2  3
  7  8  1  0
  7  9  1  0
M  END
> <Name>
2-Nitrophenol

> <CAS>
000088-75-5

> <VED1>
3.122

> <nHAcc>
3

> <MAXDP>
3.067

> <CIC0>
2.125

> <Log Koc Exp>
2.06

> <Log Koc Pred>
1.71

> <Hat>
0.026

> <Hat Cutoff>
0.161

> <ID Model>
92

> <Smiles>
c1cc(c(cc1)N(O)O)O

$$$$
Dinoseb
  SciTegic03251110552D

 18 18  0  0  0  0            999 V2000
    0.0000    0.0000    0.0000 C   0  0
    0.0000    0.0000    0.0000 C   0  0
    0.0000    0.0000    0.0000 C   0  0
    0.0000    0.0000    0.0000 C   0  0
    0.0000    0.0000    0.0000 C   0  0
    0.0000    0.0000    0.0000 C   0  0
    0.0000    0.0000    0.0000 C   0  0
    0.0000    0.0000    0.0000 H   0  0
    0.0000    0.0000    0.0000 C   0  0
    0.0000    0.0000    0.0000 C   0  0
    0.0000    0.0000    0.0000 C   0  0
    0.0000    0.0000    0.0000 O   0  0
    0.0000    0.0000    0.0000 N   0  0
    0.0000    0.0000    0.0000 O   0  0
    0.0000    0.0000    0.0000 O   0  0
    0.0000    0.0000    0.0000 N   0  0
    0.0000    0.0000    0.0000 O   0  0
    0.0000    0.0000    0.0000 O   0  0
  1  6  1  0
  1  2  2  3
  2  3  1  0
  2 16  1  0
  3  4  2  3
  4  5  1  0
  4 13  1  0
  5  6  2  3
  5 12  1  0
  6  7  1  0
  7  8  1  0
  7  9  1  0
  7 10  1  0
 10 11  1  0
 13 14  1  0
 13 15  1  0
 16 17  1  0
 16 18  1  0
M  END
> <Name>
Dinoseb

> <CAS>
000088-85-7

> <VED1>
4.056

> <nHAcc>
5

> <MAXDP>
3.703

> <CIC0>
3.098

> <Log Koc Exp>
2.4

> <Log Koc Pred>
2.48

> <Hat>
0.023

> <Hat Cutoff>
0.161

> <ID Model>
93

> <Smiles>
c1c(cc(c(c1[C@H](C)CC)O)N(O)O)N(O)O

$$$$
Phthalic acid
  SciTegic03251110552D

 12 12  0  0  0  0            999 V2000
    0.0000    0.0000    0.0000 C   0  0
    0.0000    0.0000    0.0000 C   0  0
    0.0000    0.0000    0.0000 C   0  0
    0.0000    0.0000    0.0000 C   0  0
    0.0000    0.0000    0.0000 C   0  0
    0.0000    0.0000    0.0000 C   0  0
    0.0000    0.0000    0.0000 C   0  0
    0.0000    0.0000    0.0000 O   0  0
    0.0000    0.0000    0.0000 O   0  0
    0.0000    0.0000    0.0000 C   0  0
    0.0000    0.0000    0.0000 O   0  0
    0.0000    0.0000    0.0000 O   0  0
  1  6  1  0
  1  2  2  3
  2  3  1  0
  3  4  2  3
  3 10  1  0
  4  5  1  0
  4  7  1  0
  5  6  2  3
  7  8  2  0
  7  9  1  0
 10 11  2  0
 10 12  1  0
M  END
> <Name>
Phthalic acid

> <CAS>
000088-99-3

> <VED1>
3.414

> <nHAcc>
4

> <MAXDP>
3.463

> <CIC0>
2.639

> <Log Koc Exp>
1.07

> <Log Koc Pred>
1.69

> <Hat>
0.021

> <Hat Cutoff>
0.161

> <ID Model>
94

> <Smiles>
c1cc(c(cc1)C(=O)O)C(=O)O

$$$$
2-Methoxyphenol
  SciTegic03251110552D

  9  9  0  0  0  0            999 V2000
    0.0000    0.0000    0.0000 C   0  0
    0.0000    0.0000    0.0000 C   0  0
    0.0000    0.0000    0.0000 C   0  0
    0.0000    0.0000    0.0000 C   0  0
    0.0000    0.0000    0.0000 C   0  0
    0.0000    0.0000    0.0000 C   0  0
    0.0000    0.0000    0.0000 O   0  0
    0.0000    0.0000    0.0000 O   0  0
    0.0000    0.0000    0.0000 C   0  0
  1  6  1  0
  1  2  2  3
  1  8  1  0
  2  3  1  0
  3  4  2  3
  4  5  1  0
  5  6  2  3
  6  7  1  0
  8  9  1  0
M  END
> <Name>
2-Methoxyphenol

> <CAS>
000090-05-1

> <VED1>
2.961

> <nHAcc>
2

> <MAXDP>
2.986

> <CIC0>
2.685

> <Log Koc Exp>
1.56

> <Log Koc Pred>
1.55

> <Hat>
0.027

> <Hat Cutoff>
0.161

> <ID Model>
95

> <Smiles>
c1(ccccc1O)OC

$$$$
1-Methylnaphthalene
  SciTegic03251110552D

 11 12  0  0  0  0            999 V2000
    0.0000    0.0000    0.0000 C   0  0
    0.0000    0.0000    0.0000 C   0  0
    0.0000    0.0000    0.0000 C   0  0
    0.0000    0.0000    0.0000 C   0  0
    0.0000    0.0000    0.0000 C   0  0
    0.0000    0.0000    0.0000 C   0  0
    0.0000    0.0000    0.0000 C   0  0
    0.0000    0.0000    0.0000 C   0  0
    0.0000    0.0000    0.0000 C   0  0
    0.0000    0.0000    0.0000 C   0  0
    0.0000    0.0000    0.0000 C   0  0
  1  6  1  0
  1  2  2  3
  2  3  1  0
  3  4  2  3
  3 11  1  0
  4 10  1  0
  4  5  1  0
  5  6  2  3
  5  7  1  0
  7  8  2  3
  8  9  1  0
  9 10  2  3
M  END
> <Name>
1-Methylnaphthalene

> <CAS>
000090-12-0

> <VED1>
3.287

> <nHAcc>
0

> <MAXDP>
0.157

> <CIC0>
3.394

> <Log Koc Exp>
3.36

> <Log Koc Pred>
3.55

> <Hat>
0.07

> <Hat Cutoff>
0.161

> <ID Model>
96

> <Smiles>
c1cc(c2c(c1)cccc2)C

$$$$
4,4[-Bis(dimethylamino)benzophenone
  SciTegic03251110552D

 20 21  0  0  0  0            999 V2000
    0.0000    0.0000    0.0000 N   0  0
    0.0000    0.0000    0.0000 C   0  0
    0.0000    0.0000    0.0000 C   0  0
    0.0000    0.0000    0.0000 C   0  0
    0.0000    0.0000    0.0000 C   0  0
    0.0000    0.0000    0.0000 C   0  0
    0.0000    0.0000    0.0000 C   0  0
    0.0000    0.0000    0.0000 C   0  0
    0.0000    0.0000    0.0000 C   0  0
    0.0000    0.0000    0.0000 C   0  0
    0.0000    0.0000    0.0000 O   0  0
    0.0000    0.0000    0.0000 C   0  0
    0.0000    0.0000    0.0000 C   0  0
    0.0000    0.0000    0.0000 C   0  0
    0.0000    0.0000    0.0000 C   0  0
    0.0000    0.0000    0.0000 C   0  0
    0.0000    0.0000    0.0000 C   0  0
    0.0000    0.0000    0.0000 N   0  0
    0.0000    0.0000    0.0000 C   0  0
    0.0000    0.0000    0.0000 C   0  0
  1  2  1  0
  1  3  1  0
  1  4  1  0
  4  9  1  0
  4  5  2  3
  5  6  1  0
  6  7  2  3
  7  8  1  0
  7 10  1  0
  8  9  2  3
 10 11  2  0
 10 12  1  0
 12 17  1  0
 12 13  2  3
 13 14  1  0
 14 15  2  3
 15 16  1  0
 15 18  1  0
 16 17  2  3
 18 19  1  0
 18 20  1  0
M  END
> <Name>
4,4[-Bis(dimethylamino)benzophenone

> <CAS>
000090-94-8

> <VED1>
4.396

> <nHAcc>
3

> <MAXDP>
5.381

> <CIC0>
3.948

> <Log Koc Exp>
2.21

> <Log Koc Pred>
3.07

> <Hat>
0.059

> <Hat Cutoff>
0.161

> <ID Model>
98

> <Smiles>
N(C)(C)c1ccc(cc1)C(=O)c1ccc(cc1)N(C)C

$$$$
Diphenylmethanol
  SciTegic03251110552D

 15 16  0  0  0  0            999 V2000
    0.0000    0.0000    0.0000 C   0  0
    0.0000    0.0000    0.0000 C   0  0
    0.0000    0.0000    0.0000 C   0  0
    0.0000    0.0000    0.0000 C   0  0
    0.0000    0.0000    0.0000 C   0  0
    0.0000    0.0000    0.0000 C   0  0
    0.0000    0.0000    0.0000 C   0  0
    0.0000    0.0000    0.0000 H   0  0
    0.0000    0.0000    0.0000 C   0  0
    0.0000    0.0000    0.0000 C   0  0
    0.0000    0.0000    0.0000 C   0  0
    0.0000    0.0000    0.0000 C   0  0
    0.0000    0.0000    0.0000 C   0  0
    0.0000    0.0000    0.0000 C   0  0
    0.0000    0.0000    0.0000 O   0  0
  1  6  1  0
  1  2  2  3
  2  3  1  0
  3  4  2  3
  4  5  1  0
  4  7  1  0
  5  6  2  3
  7  8  1  0
  7  9  1  0
  7 15  1  0
  9 14  1  0
  9 10  2  3
 10 11  1  0
 11 12  2  3
 12 13  1  0
 13 14  2  3
M  END
> <Name>
Diphenylmethanol

> <CAS>
000091-01-0

> <VED1>
3.695

> <nHAcc>
1

> <MAXDP>
3.992

> <CIC0>
3.505

> <Log Koc Exp>
2.34

> <Log Koc Pred>
2.85

> <Hat>
0.049

> <Hat Cutoff>
0.161

> <ID Model>
99

> <Smiles>
c1ccc(cc1)[C@@H](c1ccccc1)O

$$$$
1,2-Dimethoxybenzene
  SciTegic03251110552D

 10 10  0  0  0  0            999 V2000
    0.0000    0.0000    0.0000 C   0  0
    0.0000    0.0000    0.0000 C   0  0
    0.0000    0.0000    0.0000 C   0  0
    0.0000    0.0000    0.0000 C   0  0
    0.0000    0.0000    0.0000 C   0  0
    0.0000    0.0000    0.0000 C   0  0
    0.0000    0.0000    0.0000 O   0  0
    0.0000    0.0000    0.0000 C   0  0
    0.0000    0.0000    0.0000 O   0  0
    0.0000    0.0000    0.0000 C   0  0
  1  6  1  0
  1  2  2  3
  2  3  1  0
  3  4  2  3
  4  5  1  0
  5  6  2  3
  5  9  1  0
  6  7  1  0
  7  8  1  0
  9 10  1  0
M  END
> <Name>
1,2-Dimethoxybenzene

> <CAS>
000091-16-7

> <VED1>
3.114

> <nHAcc>
2

> <MAXDP>
1.511

> <CIC0>
2.961

> <Log Koc Exp>
2.03

> <Log Koc Pred>
2.24

> <Hat>
0.038

> <Hat Cutoff>
0.161

> <ID Model>
100

> <Smiles>
c1cccc(c1OC)OC

$$$$
Naphthalene
  SciTegic03251110552D

 10 11  0  0  0  0            999 V2000
    0.0000    0.0000    0.0000 C   0  0
    0.0000    0.0000    0.0000 C   0  0
    0.0000    0.0000    0.0000 C   0  0
    0.0000    0.0000    0.0000 C   0  0
    0.0000    0.0000    0.0000 C   0  0
    0.0000    0.0000    0.0000 C   0  0
    0.0000    0.0000    0.0000 C   0  0
    0.0000    0.0000    0.0000 C   0  0
    0.0000    0.0000    0.0000 C   0  0
    0.0000    0.0000    0.0000 C   0  0
  1  6  1  0
  1  2  2  3
  2  3  1  0
  3  4  2  3
  4 10  1  0
  4  5  1  0
  5  6  2  3
  5  7  1  0
  7  8  2  3
  8  9  1  0
  9 10  2  3
M  END
> <Name>
Naphthalene

> <CAS>
000091-20-3

> <VED1>
3.14

> <nHAcc>
0

> <MAXDP>
0.12

> <CIC0>
3.179

> <Log Koc Exp>
3.11

> <Log Koc Pred>
3.32

> <Hat>
0.064

> <Hat Cutoff>
0.161

> <ID Model>
101

> <Smiles>
c1ccc2c(c1)cccc2

$$$$
Quinoline
  SciTegic03251110552D

 10 11  0  0  0  0            999 V2000
    0.0000    0.0000    0.0000 C   0  0
    0.0000    0.0000    0.0000 C   0  0
    0.0000    0.0000    0.0000 N   0  0
    0.0000    0.0000    0.0000 C   0  0
    0.0000    0.0000    0.0000 C   0  0
    0.0000    0.0000    0.0000 C   0  0
    0.0000    0.0000    0.0000 C   0  0
    0.0000    0.0000    0.0000 C   0  0
    0.0000    0.0000    0.0000 C   0  0
    0.0000    0.0000    0.0000 C   0  0
  1  6  1  0
  1 10  1  0
  1  2  2  3
  2  3  1  0
  2  7  1  0
  3  4  2  3
  4  5  1  0
  5  6  2  3
  7  8  2  3
  8  9  1  0
  9 10  2  3
M  END
> <Name>
Quinoline

> <CAS>
000091-22-5

> <VED1>
3.14

> <nHAcc>
1

> <MAXDP>
1.181

> <CIC0>
2.834

> <Log Koc Exp>
3

> <Log Koc Pred>
2.77

> <Hat>
0.03

> <Hat Cutoff>
0.161

> <ID Model>
102

> <Smiles>
c12c(nccc1)cccc2

$$$$
2-Methylnaphthalene
  SciTegic03251110552D

 11 12  0  0  0  0            999 V2000
    0.0000    0.0000    0.0000 C   0  0
    0.0000    0.0000    0.0000 C   0  0
    0.0000    0.0000    0.0000 C   0  0
    0.0000    0.0000    0.0000 C   0  0
    0.0000    0.0000    0.0000 C   0  0
    0.0000    0.0000    0.0000 C   0  0
    0.0000    0.0000    0.0000 C   0  0
    0.0000    0.0000    0.0000 C   0  0
    0.0000    0.0000    0.0000 C   0  0
    0.0000    0.0000    0.0000 C   0  0
    0.0000    0.0000    0.0000 C   0  0
  1  6  1  0
  1  2  2  3
  2  3  1  0
  2 11  1  0
  3  4  2  3
  4 10  1  0
  4  5  1  0
  5  6  2  3
  5  7  1  0
  7  8  2  3
  8  9  1  0
  9 10  2  3
M  END
> <Name>
2-Methylnaphthalene

> <CAS>
000091-57-6

> <VED1>
3.284

> <nHAcc>
0

> <MAXDP>
0.204

> <CIC0>
3.394

> <Log Koc Exp>
3.52

> <Log Koc Pred>
3.53

> <Hat>
0.068

> <Hat Cutoff>
0.161

> <ID Model>
103

> <Smiles>
c1c(cc2c(c1)cccc2)C

$$$$
N,N-Diethyl Aniline
  SciTegic03251110552D

 11 11  0  0  0  0            999 V2000
    0.0000    0.0000    0.0000 C   0  0
    0.0000    0.0000    0.0000 C   0  0
    0.0000    0.0000    0.0000 N   0  0
    0.0000    0.0000    0.0000 C   0  0
    0.0000    0.0000    0.0000 C   0  0
    0.0000    0.0000    0.0000 C   0  0
    0.0000    0.0000    0.0000 C   0  0
    0.0000    0.0000    0.0000 C   0  0
    0.0000    0.0000    0.0000 C   0  0
    0.0000    0.0000    0.0000 C   0  0
    0.0000    0.0000    0.0000 C   0  0
  1  2  1  0
  1  3  1  0
  3  4  1  0
  3  6  1  0
  4  5  1  0
  6 11  1  0
  6  7  2  3
  7  8  1  0
  8  9  2  3
  9 10  1  0
 10 11  2  3
M  END
> <Name>
N,N-Diethyl Aniline

> <CAS>
000091-66-7

> <VED1>
3.267

> <nHAcc>
1

> <MAXDP>
0.333

> <CIC0>
3.532

> <Log Koc Exp>
2.37

> <Log Koc Pred>
3.07

> <Hat>
0.084

> <Hat Cutoff>
0.161

> <ID Model>
104

> <Smiles>
C(C)N(CC)c1ccccc1

$$$$
Methapyrilene
  SciTegic03251110552D

 18 19  0  0  0  0            999 V2000
    0.0000    0.0000    0.0000 C   0  0
    0.0000    0.0000    0.0000 N   0  0
    0.0000    0.0000    0.0000 C   0  0
    0.0000    0.0000    0.0000 C   0  0
    0.0000    0.0000    0.0000 C   0  0
    0.0000    0.0000    0.0000 N   0  0
    0.0000    0.0000    0.0000 C   0  0
    0.0000    0.0000    0.0000 C   0  0
    0.0000    0.0000    0.0000 S   0  0
    0.0000    0.0000    0.0000 C   0  0
    0.0000    0.0000    0.0000 C   0  0
    0.0000    0.0000    0.0000 C   0  0
    0.0000    0.0000    0.0000 C   0  0
    0.0000    0.0000    0.0000 C   0  0
    0.0000    0.0000    0.0000 C   0  0
    0.0000    0.0000    0.0000 C   0  0
    0.0000    0.0000    0.0000 C   0  0
    0.0000    0.0000    0.0000 N   0  0
  1  2  1  0
  2  3  1  0
  2  4  1  0
  4  5  1  0
  5  6  1  0
  6  7  1  0
  6 13  1  0
  7  8  1  0
  8 12  2  3
  8  9  1  0
  9 10  1  0
 10 11  2  3
 11 12  1  0
 13 18  1  0
 13 14  2  3
 14 15  1  0
 15 16  2  3
 16 17  1  0
 17 18  2  3
M  END
> <Name>
Methapyrilene

> <CAS>
000091-80-5

> <VED1>
4.175

> <nHAcc>
3

> <MAXDP>
1.45

> <CIC0>
3.75

> <Log Koc Exp>
2.87

> <Log Koc Pred>
3.89

> <Hat>
0.063

> <Hat Cutoff>
0.161

> <ID Model>
105

> <Smiles>
CN(C)CCN(Cc1sccc1)c1ccccn1

$$$$
3,3'-Dichlorobenzidine
  SciTegic03251110552D

 16 17  0  0  0  0            999 V2000
    0.0000    0.0000    0.0000 C   0  0
    0.0000    0.0000    0.0000 C   0  0
    0.0000    0.0000    0.0000 C   0  0
    0.0000    0.0000    0.0000 C   0  0
    0.0000    0.0000    0.0000 C   0  0
    0.0000    0.0000    0.0000 C   0  0
    0.0000    0.0000    0.0000 Cl  0  0
    0.0000    0.0000    0.0000 N   0  0
    0.0000    0.0000    0.0000 C   0  0
    0.0000    0.0000    0.0000 C   0  0
    0.0000    0.0000    0.0000 C   0  0
    0.0000    0.0000    0.0000 C   0  0
    0.0000    0.0000    0.0000 C   0  0
    0.0000    0.0000    0.0000 C   0  0
    0.0000    0.0000    0.0000 N   0  0
    0.0000    0.0000    0.0000 Cl  0  0
  1  6  1  0
  1  2  2  3
  2  3  1  0
  2  9  1  0
  3  4  2  3
  4  5  1  0
  5  6  2  3
  5  8  1  0
  6  7  1  0
  9 14  1  0
  9 10  2  3
 10 11  1  0
 11 12  2  3
 11 16  1  0
 12 13  1  0
 12 15  1  0
 13 14  2  3
M  END
> <Name>
3,3'-Dichlorobenzidine

> <CAS>
000091-94-1

> <VED1>
3.944

> <nHAcc>
2

> <MAXDP>
1.841

> <CIC0>
3.086

> <Log Koc Exp>
4.35

> <Log Koc Pred>
3.84

> <Hat>
0.031

> <Hat Cutoff>
0.161

> <ID Model>
106

> <Smiles>
c1c(ccc(c1Cl)N)c1cc(c(cc1)N)Cl

$$$$
Tetracene
  SciTegic03251110552D

 18 21  0  0  0  0            999 V2000
    0.0000    0.0000    0.0000 C   0  0
    0.0000    0.0000    0.0000 C   0  0
    0.0000    0.0000    0.0000 C   0  0
    0.0000    0.0000    0.0000 C   0  0
    0.0000    0.0000    0.0000 C   0  0
    0.0000    0.0000    0.0000 C   0  0
    0.0000    0.0000    0.0000 C   0  0
    0.0000    0.0000    0.0000 C   0  0
    0.0000    0.0000    0.0000 C   0  0
    0.0000    0.0000    0.0000 C   0  0
    0.0000    0.0000    0.0000 C   0  0
    0.0000    0.0000    0.0000 C   0  0
    0.0000    0.0000    0.0000 C   0  0
    0.0000    0.0000    0.0000 C   0  0
    0.0000    0.0000    0.0000 C   0  0
    0.0000    0.0000    0.0000 C   0  0
    0.0000    0.0000    0.0000 C   0  0
    0.0000    0.0000    0.0000 C   0  0
  1 10  1  0
  1  2  2  3
  2  7  1  0
  2  3  1  0
  3  4  2  3
  4 18  1  0
  4  5  1  0
  5  6  2  3
  5 15  1  0
  6  7  1  0
  7  8  2  3
  8  9  1  0
  9 14  1  0
  9 10  2  3
 10 11  1  0
 11 12  2  3
 12 13  1  0
 13 14  2  3
 15 16  2  3
 16 17  1  0
 17 18  2  3
M  END
> <Name>
Tetracene

> <CAS>
000092-24-0

> <VED1>
4.191

> <nHAcc>
0

> <MAXDP>
0.275

> <CIC0>
3.936

> <Log Koc Exp>
5.81

> <Log Koc Pred>
5.23

> <Hat>
0.101

> <Hat Cutoff>
0.161

> <ID Model>
107

> <Smiles>
c1c2cc3c(cc2cc2c1cccc2)cccc3

$$$$
Biphenyl
  SciTegic03251110552D

 12 13  0  0  0  0            999 V2000
    0.0000    0.0000    0.0000 C   0  0
    0.0000    0.0000    0.0000 C   0  0
    0.0000    0.0000    0.0000 C   0  0
    0.0000    0.0000    0.0000 C   0  0
    0.0000    0.0000    0.0000 C   0  0
    0.0000    0.0000    0.0000 C   0  0
    0.0000    0.0000    0.0000 C   0  0
    0.0000    0.0000    0.0000 C   0  0
    0.0000    0.0000    0.0000 C   0  0
    0.0000    0.0000    0.0000 C   0  0
    0.0000    0.0000    0.0000 C   0  0
    0.0000    0.0000    0.0000 C   0  0
  1  6  1  0
  1  2  2  3
  2  3  1  0
  2  7  1  0
  3  4  2  3
  4  5  1  0
  5  6  2  3
  7 12  1  0
  7  8  2  3
  8  9  1  0
  9 10  2  3
 10 11  1  0
 11 12  2  3
M  END
> <Name>
Biphenyl

> <CAS>
000092-52-4

> <VED1>
3.425

> <nHAcc>
0

> <MAXDP>
0.12

> <CIC0>
3.465

> <Log Koc Exp>
3.25

> <Log Koc Pred>
3.83

> <Hat>
0.072

> <Hat Cutoff>
0.161

> <ID Model>
108

> <Smiles>
c1c(cccc1)c1ccccc1

$$$$
Phenazine
  SciTegic03251110552D

 14 16  0  0  0  0            999 V2000
    0.0000    0.0000    0.0000 C   0  0
    0.0000    0.0000    0.0000 C   0  0
    0.0000    0.0000    0.0000 C   0  0
    0.0000    0.0000    0.0000 C   0  0
    0.0000    0.0000    0.0000 C   0  0
    0.0000    0.0000    0.0000 C   0  0
    0.0000    0.0000    0.0000 N   0  0
    0.0000    0.0000    0.0000 C   0  0
    0.0000    0.0000    0.0000 C   0  0
    0.0000    0.0000    0.0000 N   0  0
    0.0000    0.0000    0.0000 C   0  0
    0.0000    0.0000    0.0000 C   0  0
    0.0000    0.0000    0.0000 C   0  0
    0.0000    0.0000    0.0000 C   0  0
  1  6  1  0
  1  2  2  3
  2  3  1  0
  3 10  1  0
  3  4  2  3
  4  5  1  0
  4  7  1  0
  5  6  2  3
  7  8  2  3
  8 14  1  0
  8  9  1  0
  9 10  2  3
  9 11  1  0
 11 12  2  3
 12 13  1  0
 13 14  2  3
M  END
> <Name>
Phenazine

> <CAS>
000092-82-0

> <VED1>
3.702

> <nHAcc>
2

> <MAXDP>
1.515

> <CIC0>
3.137

> <Log Koc Exp>
3.37

> <Log Koc Pred>
3.41

> <Hat>
0.031

> <Hat Cutoff>
0.161

> <ID Model>
109

> <Smiles>
c1cc2c(cc1)nc1c(n2)cccc1

$$$$
Benzidine
  SciTegic03251110552D

 14 15  0  0  0  0            999 V2000
    0.0000    0.0000    0.0000 C   0  0
    0.0000    0.0000    0.0000 C   0  0
    0.0000    0.0000    0.0000 C   0  0
    0.0000    0.0000    0.0000 C   0  0
    0.0000    0.0000    0.0000 C   0  0
    0.0000    0.0000    0.0000 C   0  0
    0.0000    0.0000    0.0000 C   0  0
    0.0000    0.0000    0.0000 C   0  0
    0.0000    0.0000    0.0000 C   0  0
    0.0000    0.0000    0.0000 C   0  0
    0.0000    0.0000    0.0000 C   0  0
    0.0000    0.0000    0.0000 C   0  0
    0.0000    0.0000    0.0000 N   0  0
    0.0000    0.0000    0.0000 N   0  0
  1  6  1  0
  1  2  2  3
  1 14  1  0
  2  3  1  0
  3  4  2  3
  4  5  1  0
  4  7  1  0
  5  6  2  3
  7 12  1  0
  7  8  2  3
  8  9  1  0
  9 10  2  3
 10 11  1  0
 10 13  1  0
 11 12  2  3
M  END
> <Name>
Benzidine

> <CAS>
000092-87-5

> <VED1>
3.686

> <nHAcc>
2

> <MAXDP>
1.609

> <CIC0>
3.386

> <Log Koc Exp>
3.46

> <Log Koc Pred>
3.27

> <Hat>
0.034

> <Hat Cutoff>
0.161

> <ID Model>
110

> <Smiles>
c1(ccc(cc1)c1ccc(cc1)N)N

$$$$
4-Acetylbiphenyl
  SciTegic03251110552D

 15 16  0  0  0  0            999 V2000
    0.0000    0.0000    0.0000 C   0  0
    0.0000    0.0000    0.0000 C   0  0
    0.0000    0.0000    0.0000 C   0  0
    0.0000    0.0000    0.0000 C   0  0
    0.0000    0.0000    0.0000 C   0  0
    0.0000    0.0000    0.0000 C   0  0
    0.0000    0.0000    0.0000 C   0  0
    0.0000    0.0000    0.0000 C   0  0
    0.0000    0.0000    0.0000 C   0  0
    0.0000    0.0000    0.0000 C   0  0
    0.0000    0.0000    0.0000 C   0  0
    0.0000    0.0000    0.0000 C   0  0
    0.0000    0.0000    0.0000 C   0  0
    0.0000    0.0000    0.0000 O   0  0
    0.0000    0.0000    0.0000 C   0  0
  1  6  1  0
  1  2  2  3
  2  3  1  0
  3  4  2  3
  3  7  1  0
  4  5  1  0
  5  6  2  3
  7 12  1  0
  7  8  2  3
  8  9  1  0
  9 10  2  3
 10 11  1  0
 10 13  1  0
 11 12  2  3
 13 14  2  0
 13 15  1  0
M  END
> <Name>
4-Acetylbiphenyl

> <CAS>
000092-91-1

> <VED1>
3.814

> <nHAcc>
1

> <MAXDP>
4.093

> <CIC0>
3.568

> <Log Koc Exp>
3.22

> <Log Koc Pred>
3.05

> <Hat>
0.052

> <Hat Cutoff>
0.161

> <ID Model>
111

> <Smiles>
c1cc(ccc1)c1ccc(cc1)C(=O)C

$$$$
2-Acetonaphthalene
  SciTegic03251110552D

 13 14  0  0  0  0            999 V2000
    0.0000    0.0000    0.0000 C   0  0
    0.0000    0.0000    0.0000 C   0  0
    0.0000    0.0000    0.0000 C   0  0
    0.0000    0.0000    0.0000 C   0  0
    0.0000    0.0000    0.0000 C   0  0
    0.0000    0.0000    0.0000 C   0  0
    0.0000    0.0000    0.0000 C   0  0
    0.0000    0.0000    0.0000 C   0  0
    0.0000    0.0000    0.0000 C   0  0
    0.0000    0.0000    0.0000 C   0  0
    0.0000    0.0000    0.0000 C   0  0
    0.0000    0.0000    0.0000 O   0  0
    0.0000    0.0000    0.0000 C   0  0
  1  6  1  0
  1  2  2  3
  2  3  1  0
  3  4  2  3
  4 10  1  0
  4  5  1  0
  5  6  2  3
  5  7  1  0
  7  8  2  3
  8  9  1  0
  8 11  1  0
  9 10  2  3
 11 12  2  0
 11 13  1  0
M  END
> <Name>
2-Acetonaphthalene

> <CAS>
000093-08-3

> <VED1>
3.559

> <nHAcc>
1

> <MAXDP>
4.089

> <CIC0>
3.315

> <Log Koc Exp>
2.93

> <Log Koc Pred>
2.6

> <Hat>
0.049

> <Hat Cutoff>
0.161

> <ID Model>
112

> <Smiles>
c1ccc2c(c1)cc(cc2)C(=O)C

$$$$
Methyl benzoate
  SciTegic03251110552D

 10 10  0  0  0  0            999 V2000
    0.0000    0.0000    0.0000 C   0  0
    0.0000    0.0000    0.0000 C   0  0
    0.0000    0.0000    0.0000 C   0  0
    0.0000    0.0000    0.0000 C   0  0
    0.0000    0.0000    0.0000 O   0  0
    0.0000    0.0000    0.0000 O   0  0
    0.0000    0.0000    0.0000 C   0  0
    0.0000    0.0000    0.0000 C   0  0
    0.0000    0.0000    0.0000 C   0  0
    0.0000    0.0000    0.0000 C   0  0
  1 10  1  0
  1  2  2  3
  2  3  1  0
  3  4  1  0
  3  8  2  3
  4  5  2  0
  4  6  1  0
  6  7  1  0
  8  9  1  0
  9 10  2  3
M  END
> <Name>
Methyl benzoate

> <CAS>
000093-58-3

> <VED1>
3.119

> <nHAcc>
2

> <MAXDP>
3.791

> <CIC0>
2.778

> <Log Koc Exp>
2.1

> <Log Koc Pred>
1.6

> <Hat>
0.032

> <Hat Cutoff>
0.161

> <ID Model>
113

> <Smiles>
c1cc(C(=O)OC)ccc1

$$$$
Silvex
  SciTegic03251110552D

 15 15  0  0  0  0            999 V2000
    0.0000    0.0000    0.0000 Cl  0  0
    0.0000    0.0000    0.0000 C   0  0
    0.0000    0.0000    0.0000 C   0  0
    0.0000    0.0000    0.0000 C   0  0
    0.0000    0.0000    0.0000 C   0  0
    0.0000    0.0000    0.0000 C   0  0
    0.0000    0.0000    0.0000 C   0  0
    0.0000    0.0000    0.0000 Cl  0  0
    0.0000    0.0000    0.0000 Cl  0  0
    0.0000    0.0000    0.0000 O   0  0
    0.0000    0.0000    0.0000 C   0  0
    0.0000    0.0000    0.0000 C   0  0
    0.0000    0.0000    0.0000 O   0  0
    0.0000    0.0000    0.0000 O   0  0
    0.0000    0.0000    0.0000 C   0  0
  1  2  1  0
  2  7  1  0
  2  3  2  3
  3  4  1  0
  3 10  1  0
  4  5  2  3
  5  6  1  0
  5  9  1  0
  6  7  2  3
  6  8  1  0
 10 11  1  0
 11 12  1  0
 12 13  2  0
 12 14  1  0
 14 15  1  0
M  END
> <Name>
Silvex

> <CAS>
000093-72-1

> <VED1>
3.812

> <nHAcc>
3

> <MAXDP>
3.799

> <CIC0>
2.622

> <Log Koc Exp>
2.52

> <Log Koc Pred>
2.77

> <Hat>
0.024

> <Hat Cutoff>
0.161

> <ID Model>
114

> <Smiles>
Clc1c(cc(c(c1)Cl)Cl)OCC(=O)OC

$$$$
2,4,5-T acid
  SciTegic03251110552D

 14 14  0  0  0  0            999 V2000
    0.0000    0.0000    0.0000 Cl  0  0
    0.0000    0.0000    0.0000 C   0  0
    0.0000    0.0000    0.0000 C   0  0
    0.0000    0.0000    0.0000 C   0  0
    0.0000    0.0000    0.0000 C   0  0
    0.0000    0.0000    0.0000 C   0  0
    0.0000    0.0000    0.0000 C   0  0
    0.0000    0.0000    0.0000 Cl  0  0
    0.0000    0.0000    0.0000 Cl  0  0
    0.0000    0.0000    0.0000 O   0  0
    0.0000    0.0000    0.0000 C   0  0
    0.0000    0.0000    0.0000 C   0  0
    0.0000    0.0000    0.0000 O   0  0
    0.0000    0.0000    0.0000 O   0  0
  1  2  1  0
  2  7  1  0
  2  3  2  3
  3  4  1  0
  3 10  1  0
  4  5  2  3
  5  6  1  0
  5  9  1  0
  6  7  2  3
  6  8  1  0
 10 11  1  0
 11 12  1  0
 12 13  2  0
 12 14  1  0
M  END
> <Name>
2,4,5-T acid

> <CAS>
000093-76-5

> <VED1>
3.683

> <nHAcc>
3

> <MAXDP>
3.209

> <CIC0>
2.375

> <Log Koc Exp>
1.86

> <Log Koc Pred>
2.76

> <Hat>
0.027

> <Hat Cutoff>
0.161

> <ID Model>
115

> <Smiles>
Clc1c(cc(c(c1)Cl)Cl)OCC(=O)O

$$$$
Ethyl benzoate
  SciTegic03251110552D

 11 11  0  0  0  0            999 V2000
    0.0000    0.0000    0.0000 C   0  0
    0.0000    0.0000    0.0000 C   0  0
    0.0000    0.0000    0.0000 C   0  0
    0.0000    0.0000    0.0000 C   0  0
    0.0000    0.0000    0.0000 O   0  0
    0.0000    0.0000    0.0000 O   0  0
    0.0000    0.0000    0.0000 C   0  0
    0.0000    0.0000    0.0000 C   0  0
    0.0000    0.0000    0.0000 C   0  0
    0.0000    0.0000    0.0000 C   0  0
    0.0000    0.0000    0.0000 C   0  0
  1 11  1  0
  1  2  2  3
  2  3  1  0
  3  4  1  0
  3  9  2  3
  4  5  2  0
  4  6  1  0
  6  7  1  0
  7  8  1  0
  9 10  1  0
 10 11  2  3
M  END
> <Name>
Ethyl benzoate

> <CAS>
000093-89-0

> <VED1>
3.267

> <nHAcc>
2

> <MAXDP>
4.022

> <CIC0>
3.036

> <Log Koc Exp>
2.3

> <Log Koc Pred>
1.76

> <Hat>
0.036

> <Hat Cutoff>
0.161

> <ID Model>
116

> <Smiles>
c1cc(C(=O)OCC)ccc1

$$$$
Phenyl Benzoate
  SciTegic03251110552D

 15 16  0  0  0  0            999 V2000
    0.0000    0.0000    0.0000 C   0  0
    0.0000    0.0000    0.0000 C   0  0
    0.0000    0.0000    0.0000 C   0  0
    0.0000    0.0000    0.0000 C   0  0
    0.0000    0.0000    0.0000 C   0  0
    0.0000    0.0000    0.0000 C   0  0
    0.0000    0.0000    0.0000 O   0  0
    0.0000    0.0000    0.0000 C   0  0
    0.0000    0.0000    0.0000 O   0  0
    0.0000    0.0000    0.0000 C   0  0
    0.0000    0.0000    0.0000 C   0  0
    0.0000    0.0000    0.0000 C   0  0
    0.0000    0.0000    0.0000 C   0  0
    0.0000    0.0000    0.0000 C   0  0
    0.0000    0.0000    0.0000 C   0  0
  1  6  1  0
  1  2  2  3
  2  3  1  0
  3  4  2  3
  4  5  1  0
  4  7  1  0
  5  6  2  3
  7  8  1  0
  8  9  2  0
  8 10  1  0
 10 15  1  0
 10 11  2  3
 11 12  1  0
 12 13  2  3
 13 14  1  0
 14 15  2  3
M  END
> <Name>
Phenyl Benzoate

> <CAS>
000093-99-2

> <VED1>
3.825

> <nHAcc>
2

> <MAXDP>
4.592

> <CIC0>
3.333

> <Log Koc Exp>
3.16

> <Log Koc Pred>
2.66

> <Hat>
0.042

> <Hat Cutoff>
0.161

> <ID Model>
117

> <Smiles>
c1ccc(cc1)OC(=O)c1ccccc1

$$$$
Ethyl 4-methylbenzoate
  SciTegic03251110552D

 12 12  0  0  0  0            999 V2000
    0.0000    0.0000    0.0000 C   0  0
    0.0000    0.0000    0.0000 C   0  0
    0.0000    0.0000    0.0000 C   0  0
    0.0000    0.0000    0.0000 C   0  0
    0.0000    0.0000    0.0000 C   0  0
    0.0000    0.0000    0.0000 C   0  0
    0.0000    0.0000    0.0000 C   0  0
    0.0000    0.0000    0.0000 C   0  0
    0.0000    0.0000    0.0000 O   0  0
    0.0000    0.0000    0.0000 O   0  0
    0.0000    0.0000    0.0000 C   0  0
    0.0000    0.0000    0.0000 C   0  0
  1  2  1  0
  2  7  1  0
  2  3  2  3
  3  4  1  0
  4  5  2  3
  5  6  1  0
  5  8  1  0
  6  7  2  3
  8  9  2  0
  8 10  1  0
 10 11  1  0
 11 12  1  0
M  END
> <Name>
Ethyl 4-methylbenzoate

> <CAS>
000094-08-6

> <VED1>
3.406

> <nHAcc>
2

> <MAXDP>
4.134

> <CIC0>
3.26

> <Log Koc Exp>
2.59

> <Log Koc Pred>
1.94

> <Hat>
0.04

> <Hat Cutoff>
0.161

> <ID Model>
118

> <Smiles>
Cc1ccc(cc1)C(=O)OCC

$$$$
Safrole
  SciTegic03251110552D

 12 13  0  0  0  0            999 V2000
    0.0000    0.0000    0.0000 C   0  0
    0.0000    0.0000    0.0000 C   0  0
    0.0000    0.0000    0.0000 C   0  0
    0.0000    0.0000    0.0000 C   0  0
    0.0000    0.0000    0.0000 C   0  0
    0.0000    0.0000    0.0000 C   0  0
    0.0000    0.0000    0.0000 O   0  0
    0.0000    0.0000    0.0000 C   0  0
    0.0000    0.0000    0.0000 O   0  0
    0.0000    0.0000    0.0000 C   0  0
    0.0000    0.0000    0.0000 C   0  0
    0.0000    0.0000    0.0000 C   0  0
  1  6  1  0
  1  2  2  3
  1 10  1  0
  2  3  1  0
  3  9  1  0
  3  4  2  3
  4  5  1  0
  4  7  1  0
  5  6  2  3
  7  8  1  0
  8  9  1  0
 10 11  1  0
 11 12  2  0
M  END
> <Name>
Safrole

> <CAS>
000094-59-7

> <VED1>
3.412

> <nHAcc>
2

> <MAXDP>
1.729

> <CIC0>
3.111

> <Log Koc Exp>
2.83

> <Log Koc Pred>
2.75

> <Hat>
0.027

> <Hat Cutoff>
0.161

> <ID Model>
119

> <Smiles>
c1(cc2c(cc1)OCO2)CC=C

$$$$
MCPA
  SciTegic03251110552D

 13 13  0  0  0  0            999 V2000
    0.0000    0.0000    0.0000 C   0  0
    0.0000    0.0000    0.0000 C   0  0
    0.0000    0.0000    0.0000 C   0  0
    0.0000    0.0000    0.0000 C   0  0
    0.0000    0.0000    0.0000 C   0  0
    0.0000    0.0000    0.0000 C   0  0
    0.0000    0.0000    0.0000 Cl  0  0
    0.0000    0.0000    0.0000 O   0  0
    0.0000    0.0000    0.0000 C   0  0
    0.0000    0.0000    0.0000 C   0  0
    0.0000    0.0000    0.0000 O   0  0
    0.0000    0.0000    0.0000 O   0  0
    0.0000    0.0000    0.0000 C   0  0
  1  6  1  0
  1  2  2  3
  1 13  1  0
  2  3  1  0
  2  8  1  0
  3  4  2  3
  4  5  1  0
  5  6  2  3
  5  7  1  0
  8  9  1  0
  9 10  1  0
 10 11  2  0
 10 12  1  0
M  END
> <Name>
MCPA

> <CAS>
000094-74-6

> <VED1>
3.549

> <nHAcc>
3

> <MAXDP>
3.2

> <CIC0>
2.81

> <Log Koc Exp>
1.73

> <Log Koc Pred>
2.34

> <Hat>
0.012

> <Hat Cutoff>
0.161

> <ID Model>
120

> <Smiles>
c1(c(ccc(c1)Cl)OCC(=O)O)C

$$$$
2,4-D acid
  SciTegic03251110552D

 13 13  0  0  0  0            999 V2000
    0.0000    0.0000    0.0000 O   0  0
    0.0000    0.0000    0.0000 C   0  0
    0.0000    0.0000    0.0000 C   0  0
    0.0000    0.0000    0.0000 O   0  0
    0.0000    0.0000    0.0000 C   0  0
    0.0000    0.0000    0.0000 C   0  0
    0.0000    0.0000    0.0000 C   0  0
    0.0000    0.0000    0.0000 C   0  0
    0.0000    0.0000    0.0000 C   0  0
    0.0000    0.0000    0.0000 C   0  0
    0.0000    0.0000    0.0000 Cl  0  0
    0.0000    0.0000    0.0000 Cl  0  0
    0.0000    0.0000    0.0000 O   0  0
  1  2  2  0
  2  3  1  0
  2 13  1  0
  3  4  1  0
  4  5  1  0
  5 10  1  0
  5  6  2  3
  6  7  1  0
  7  8  2  3
  8  9  1  0
  8 12  1  0
  9 10  2  3
 10 11  1  0
M  END
> <Name>
2,4-D acid

> <CAS>
000094-75-7

> <VED1>
3.549

> <nHAcc>
3

> <MAXDP>
3.157

> <CIC0>
2.435

> <Log Koc Exp>
1.48

> <Log Koc Pred>
2.48

> <Hat>
0.019

> <Hat Cutoff>
0.161

> <ID Model>
121

> <Smiles>
O=C(COc1ccc(cc1Cl)Cl)O

$$$$
Benzotriazole
  SciTegic03251110552D

 10 11  0  0  0  0            999 V2000
    0.0000    0.0000    0.0000 C   0  0
    0.0000    0.0000    0.0000 C   0  0
    0.0000    0.0000    0.0000 C   0  0
    0.0000    0.0000    0.0000 C   0  0
    0.0000    0.0000    0.0000 C   0  0
    0.0000    0.0000    0.0000 C   0  0
    0.0000    0.0000    0.0000 N   0  0
    0.0000    0.0000    0.0000 N   0  0
    0.0000    0.0000    0.0000 N   0  0
    0.0000    0.0000    0.0000 H   0  0
  1  6  1  0
  1  2  2  3
  2  3  1  0
  3  9  1  0
  3  4  2  3
  4  5  1  0
  4  7  1  0
  5  6  2  3
  7  8  2  3
  8  9  1  0
  9 10  1  0
M  END
> <Name>
Benzotriazole

> <CAS>
000095-14-7

> <VED1>
2.982

> <nHAcc>
2

> <MAXDP>
0.813

> <CIC0>
2.277

> <Log Koc Exp>
1.69

> <Log Koc Pred>
2.4

> <Hat>
0.049

> <Hat Cutoff>
0.161

> <ID Model>
122

> <Smiles>
c1cc2c(cc1)nn[nH]2

$$$$
Benzo[b]thiophene
  SciTegic03251110552D

  9 10  0  0  0  0            999 V2000
    0.0000    0.0000    0.0000 C   0  0
    0.0000    0.0000    0.0000 C   0  0
    0.0000    0.0000    0.0000 C   0  0
    0.0000    0.0000    0.0000 C   0  0
    0.0000    0.0000    0.0000 C   0  0
    0.0000    0.0000    0.0000 C   0  0
    0.0000    0.0000    0.0000 S   0  0
    0.0000    0.0000    0.0000 C   0  0
    0.0000    0.0000    0.0000 C   0  0
  1  6  1  0
  1  2  2  3
  2  3  1  0
  3  9  1  0
  3  4  2  3
  4  5  1  0
  4  7  1  0
  5  6  2  3
  7  8  1  0
  8  9  2  3
M  END
> <Name>
Benzo[b]thiophene

> <CAS>
000095-15-8

> <VED1>
2.982

> <nHAcc>
0

> <MAXDP>
0.139

> <CIC0>
2.634

> <Log Koc Exp>
3.49

> <Log Koc Pred>
3.17

> <Hat>
0.051

> <Hat Cutoff>
0.161

> <ID Model>
123

> <Smiles>
c1cc2c(cc1)scc2

$$$$
1,2-Dimethylbenzene
  SciTegic03251110552D

  8  8  0  0  0  0            999 V2000
    0.0000    0.0000    0.0000 C   0  0
    0.0000    0.0000    0.0000 C   0  0
    0.0000    0.0000    0.0000 C   0  0
    0.0000    0.0000    0.0000 C   0  0
    0.0000    0.0000    0.0000 C   0  0
    0.0000    0.0000    0.0000 C   0  0
    0.0000    0.0000    0.0000 C   0  0
    0.0000    0.0000    0.0000 C   0  0
  1  2  1  0
  2  7  1  0
  2  3  2  3
  3  4  1  0
  4  5  2  3
  5  6  1  0
  6  7  2  3
  7  8  1  0
M  END
> <Name>
1,2-Dimethylbenzene

> <CAS>
000095-47-6

> <VED1>
2.802

> <nHAcc>
0

> <MAXDP>
0.12

> <CIC0>
3.179

> <Log Koc Exp>
2.38

> <Log Koc Pred>
2.61

> <Hat>
0.081

> <Hat Cutoff>
0.161

> <ID Model>
124

> <Smiles>
Cc1ccccc1C

$$$$
o-cresol
  SciTegic03251110552D

  8  8  0  0  0  0            999 V2000
    0.0000    0.0000    0.0000 C   0  0
    0.0000    0.0000    0.0000 C   0  0
    0.0000    0.0000    0.0000 C   0  0
    0.0000    0.0000    0.0000 C   0  0
    0.0000    0.0000    0.0000 C   0  0
    0.0000    0.0000    0.0000 C   0  0
    0.0000    0.0000    0.0000 C   0  0
    0.0000    0.0000    0.0000 O   0  0
  1  6  1  0
  1  2  2  3
  2  3  1  0
  3  4  2  3
  4  5  1  0
  4  8  1  0
  5  6  2  3
  5  7  1  0
M  END
> <Name>
o-cresol

> <CAS>
000095-48-7

> <VED1>
2.802

> <nHAcc>
1

> <MAXDP>
2.919

> <CIC0>
2.728

> <Log Koc Exp>
1.34

> <Log Koc Pred>
1.56

> <Hat>
0.038

> <Hat Cutoff>
0.161

> <ID Model>
125

> <Smiles>
c1ccc(c(c1)C)O

$$$$
2-Chlorotoluene
  SciTegic03251110552D

  8  8  0  0  0  0            999 V2000
    0.0000    0.0000    0.0000 C   0  0
    0.0000    0.0000    0.0000 C   0  0
    0.0000    0.0000    0.0000 C   0  0
    0.0000    0.0000    0.0000 C   0  0
    0.0000    0.0000    0.0000 C   0  0
    0.0000    0.0000    0.0000 C   0  0
    0.0000    0.0000    0.0000 Cl  0  0
    0.0000    0.0000    0.0000 C   0  0
  1  6  1  0
  1  2  2  3
  2  3  1  0
  3  4  2  3
  3  8  1  0
  4  5  1  0
  4  7  1  0
  5  6  2  3
M  END
> <Name>
2-Chlorotoluene

> <CAS>
000095-49-8

> <VED1>
2.802

> <nHAcc>
0

> <MAXDP>
1.598

> <CIC0>
2.62

> <Log Koc Exp>
2.55

> <Log Koc Pred>
2.34

> <Hat>
0.031

> <Hat Cutoff>
0.161

> <ID Model>
126

> <Smiles>
c1cc(c(cc1)Cl)C

$$$$
1,2-Dichlorobenzene
  SciTegic03251110552D

  8  8  0  0  0  0            999 V2000
    0.0000    0.0000    0.0000 C   0  0
    0.0000    0.0000    0.0000 C   0  0
    0.0000    0.0000    0.0000 C   0  0
    0.0000    0.0000    0.0000 C   0  0
    0.0000    0.0000    0.0000 C   0  0
    0.0000    0.0000    0.0000 C   0  0
    0.0000    0.0000    0.0000 Cl  0  0
    0.0000    0.0000    0.0000 Cl  0  0
  1  6  1  0
  1  2  2  3
  2  3  1  0
  3  4  2  3
  3  8  1  0
  4  5  1  0
  4  7  1  0
  5  6  2  3
M  END
> <Name>
1,2-Dichlorobenzene

> <CAS>
000095-50-1

> <VED1>
2.802

> <nHAcc>
0

> <MAXDP>
1.466

> <CIC0>
2.126

> <Log Koc Exp>
2.51

> <Log Koc Pred>
2.55

> <Hat>
0.034

> <Hat Cutoff>
0.161

> <ID Model>
127

> <Smiles>
c1cc(c(cc1)Cl)Cl

$$$$
2-Chlorophenol
  SciTegic03251110552D

  8  8  0  0  0  0            999 V2000
    0.0000    0.0000    0.0000 C   0  0
    0.0000    0.0000    0.0000 C   0  0
    0.0000    0.0000    0.0000 C   0  0
    0.0000    0.0000    0.0000 C   0  0
    0.0000    0.0000    0.0000 C   0  0
    0.0000    0.0000    0.0000 C   0  0
    0.0000    0.0000    0.0000 O   0  0
    0.0000    0.0000    0.0000 Cl  0  0
  1  6  1  0
  1  2  2  3
  2  3  1  0
  3  4  2  3
  3  8  1  0
  4  5  1  0
  4  7  1  0
  5  6  2  3
M  END
> <Name>
2-Chlorophenol

> <CAS>
000095-57-8

> <VED1>
2.802

> <nHAcc>
1

> <MAXDP>
2.787

> <CIC0>
2.086

> <Log Koc Exp>
2.16

> <Log Koc Pred>
1.81

> <Hat>
0.034

> <Hat Cutoff>
0.161

> <ID Model>
128

> <Smiles>
c1cc(c(cc1)O)Cl

$$$$
1,3,4-Trimethylbenzene
  SciTegic03251110552D

  9  9  0  0  0  0            999 V2000
    0.0000    0.0000    0.0000 C   0  0
    0.0000    0.0000    0.0000 C   0  0
    0.0000    0.0000    0.0000 C   0  0
    0.0000    0.0000    0.0000 C   0  0
    0.0000    0.0000    0.0000 C   0  0
    0.0000    0.0000    0.0000 C   0  0
    0.0000    0.0000    0.0000 C   0  0
    0.0000    0.0000    0.0000 C   0  0
    0.0000    0.0000    0.0000 C   0  0
  1  6  1  0
  1  2  2  3
  2  3  1  0
  2  9  1  0
  3  4  2  3
  3  8  1  0
  4  5  1  0
  5  6  2  3
  5  7  1  0
M  END
> <Name>
1,3,4-Trimethylbenzene

> <CAS>
000095-63-6

> <VED1>
2.964

> <nHAcc>
0

> <MAXDP>
0.204

> <CIC0>
3.407

> <Log Koc Exp>
3.6

> <Log Koc Pred>
2.85

> <Hat>
0.084

> <Hat Cutoff>
0.161

> <ID Model>
129

> <Smiles>
c1c(c(cc(c1)C)C)C

$$$$
3,4-Dichloroaniline
  SciTegic03251110552D

  9  9  0  0  0  0            999 V2000
    0.0000    0.0000    0.0000 Cl  0  0
    0.0000    0.0000    0.0000 C   0  0
    0.0000    0.0000    0.0000 C   0  0
    0.0000    0.0000    0.0000 C   0  0
    0.0000    0.0000    0.0000 N   0  0
    0.0000    0.0000    0.0000 C   0  0
    0.0000    0.0000    0.0000 C   0  0
    0.0000    0.0000    0.0000 C   0  0
    0.0000    0.0000    0.0000 Cl  0  0
  1  2  1  0
  2  8  1  0
  2  3  2  3
  3  4  1  0
  4  5  1  0
  4  6  2  3
  6  7  1  0
  7  8  2  3
  8  9  1  0
M  END
> <Name>
3,4-Dichloroaniline

> <CAS>
000095-76-1

> <VED1>
2.964

> <nHAcc>
1

> <MAXDP>
1.491

> <CIC0>
2.08

> <Log Koc Exp>
2.29

> <Log Koc Pred>
2.56

> <Hat>
0.032

> <Hat Cutoff>
0.161

> <ID Model>
130

> <Smiles>
Clc1cc(N)ccc1Cl

$$$$
3,4-Dichlorophenol
  SciTegic03251110552D

  9  9  0  0  0  0            999 V2000
    0.0000    0.0000    0.0000 C   0  0
    0.0000    0.0000    0.0000 C   0  0
    0.0000    0.0000    0.0000 C   0  0
    0.0000    0.0000    0.0000 C   0  0
    0.0000    0.0000    0.0000 C   0  0
    0.0000    0.0000    0.0000 C   0  0
    0.0000    0.0000    0.0000 Cl  0  0
    0.0000    0.0000    0.0000 Cl  0  0
    0.0000    0.0000    0.0000 O   0  0
  1  6  1  0
  1  2  2  3
  1  9  1  0
  2  3  1  0
  3  4  2  3
  4  5  1  0
  4  8  1  0
  5  6  2  3
  5  7  1  0
M  END
> <Name>
3,4-Dichlorophenol

> <CAS>
000095-77-2

> <VED1>
2.964

> <nHAcc>
1

> <MAXDP>
2.794

> <CIC0>
1.962

> <Log Koc Exp>
3.09

> <Log Koc Pred>
2.19

> <Hat>
0.039

> <Hat Cutoff>
0.161

> <ID Model>
131

> <Smiles>
c1(ccc(c(c1)Cl)Cl)O

$$$$
1,2,4,5-Tetramethylbenzene
  SciTegic03251110552D

 10 10  0  0  0  0            999 V2000
    0.0000    0.0000    0.0000 C   0  0
    0.0000    0.0000    0.0000 C   0  0
    0.0000    0.0000    0.0000 C   0  0
    0.0000    0.0000    0.0000 C   0  0
    0.0000    0.0000    0.0000 C   0  0
    0.0000    0.0000    0.0000 C   0  0
    0.0000    0.0000    0.0000 C   0  0
    0.0000    0.0000    0.0000 C   0  0
    0.0000    0.0000    0.0000 C   0  0
    0.0000    0.0000    0.0000 C   0  0
  1  6  1  0
  1  2  2  3
  1 10  1  0
  2  3  1  0
  3  4  2  3
  3  9  1  0
  4  5  1  0
  4  8  1  0
  5  6  2  3
  6  7  1  0
M  END
> <Name>
1,2,4,5-Tetramethylbenzene

> <CAS>
000095-93-2

> <VED1>
3.121

> <nHAcc>
0

> <MAXDP>
0.241

> <CIC0>
3.605

> <Log Koc Exp>
3.12

> <Log Koc Pred>
3.11

> <Hat>
0.089

> <Hat Cutoff>
0.161

> <ID Model>
132

> <Smiles>
c1(cc(c(cc1C)C)C)C

$$$$
1,2,4,5-Tetrachlorobenzene
  SciTegic03251110552D

 10 10  0  0  0  0            999 V2000
    0.0000    0.0000    0.0000 C   0  0
    0.0000    0.0000    0.0000 C   0  0
    0.0000    0.0000    0.0000 C   0  0
    0.0000    0.0000    0.0000 C   0  0
    0.0000    0.0000    0.0000 C   0  0
    0.0000    0.0000    0.0000 C   0  0
    0.0000    0.0000    0.0000 Cl  0  0
    0.0000    0.0000    0.0000 Cl  0  0
    0.0000    0.0000    0.0000 Cl  0  0
    0.0000    0.0000    0.0000 Cl  0  0
  1  6  1  0
  1  2  2  3
  1 10  1  0
  2  3  1  0
  3  4  2  3
  3  9  1  0
  4  5  1  0
  4  8  1  0
  5  6  2  3
  6  7  1  0
M  END
> <Name>
1,2,4,5-Tetrachlorobenzene

> <CAS>
000095-94-3

> <VED1>
3.121

> <nHAcc>
0

> <MAXDP>
1.5

> <CIC0>
2.126

> <Log Koc Exp>
3.2

> <Log Koc Pred>
3.2

> <Hat>
0.044

> <Hat Cutoff>
0.161

> <ID Model>
133

> <Smiles>
c1(cc(c(cc1Cl)Cl)Cl)Cl

$$$$
3-Trifluoromethylaniline
  SciTegic03251110552D

 11 11  0  0  0  0            999 V2000
    0.0000    0.0000    0.0000 C   0  0
    0.0000    0.0000    0.0000 C   0  0
    0.0000    0.0000    0.0000 C   0  0
    0.0000    0.0000    0.0000 C   0  0
    0.0000    0.0000    0.0000 C   0  0
    0.0000    0.0000    0.0000 C   0  0
    0.0000    0.0000    0.0000 N   0  0
    0.0000    0.0000    0.0000 C   0  0
    0.0000    0.0000    0.0000 F   0  0
    0.0000    0.0000    0.0000 F   0  0
    0.0000    0.0000    0.0000 F   0  0
  1  6  1  0
  1  2  2  3
  2  3  1  0
  3  4  2  3
  4  5  1  0
  4  8  1  0
  5  6  2  3
  6  7  1  0
  8  9  1  0
  8 10  1  0
  8 11  1  0
M  END
> <Name>
3-Trifluoromethylaniline

> <CAS>
000098-16-8

> <VED1>
3.277

> <nHAcc>
4

> <MAXDP>
3.912

> <CIC0>
2.348

> <Log Koc Exp>
2.36

> <Log Koc Pred>
1.36

> <Hat>
0.028

> <Hat Cutoff>
0.161

> <ID Model>
136

> <Smiles>
c1ccc(cc1N)C(F)(F)F

$$$$
alpha-Methylbenzyl alcohol
  SciTegic03251110552D

 10 10  0  0  0  0            999 V2000
    0.0000    0.0000    0.0000 C   0  0
    0.0000    0.0000    0.0000 C   0  0
    0.0000    0.0000    0.0000 C   0  0
    0.0000    0.0000    0.0000 C   0  0
    0.0000    0.0000    0.0000 C   0  0
    0.0000    0.0000    0.0000 C   0  0
    0.0000    0.0000    0.0000 C   0  0
    0.0000    0.0000    0.0000 H   0  0
    0.0000    0.0000    0.0000 C   0  0
    0.0000    0.0000    0.0000 O   0  0
  1  6  1  0
  1  2  2  3
  2  3  1  0
  2  7  1  0
  3  4  2  3
  4  5  1  0
  5  6  2  3
  7  8  1  0
  7  9  1  0
  7 10  1  0
M  END
> <Name>
alpha-Methylbenzyl alcohol

> <CAS>
000098-85-1

> <VED1>
2.965

> <nHAcc>
1

> <MAXDP>
3.024

> <CIC0>
3.012

> <Log Koc Exp>
1.5

> <Log Koc Pred>
1.78

> <Hat>
0.04

> <Hat Cutoff>
0.161

> <ID Model>
137

> <Smiles>
c1c(cccc1)[C@@H](C)O

$$$$
Acetophenone
  SciTegic03251110552D

  9  9  0  0  0  0            999 V2000
    0.0000    0.0000    0.0000 C   0  0
    0.0000    0.0000    0.0000 C   0  0
    0.0000    0.0000    0.0000 O   0  0
    0.0000    0.0000    0.0000 C   0  0
    0.0000    0.0000    0.0000 C   0  0
    0.0000    0.0000    0.0000 C   0  0
    0.0000    0.0000    0.0000 C   0  0
    0.0000    0.0000    0.0000 C   0  0
    0.0000    0.0000    0.0000 C   0  0
  1  2  1  0
  2  3  2  0
  2  4  1  0
  4  9  1  0
  4  5  2  3
  5  6  1  0
  6  7  2  3
  7  8  1  0
  8  9  2  3
M  END
> <Name>
Acetophenone

> <CAS>
000098-86-2

> <VED1>
2.965

> <nHAcc>
1

> <MAXDP>
3.645

> <CIC0>
2.824

> <Log Koc Exp>
1.59

> <Log Koc Pred>
1.65

> <Hat>
0.047

> <Hat Cutoff>
0.161

> <ID Model>
138

> <Smiles>
CC(=O)c1ccccc1

$$$$
Nitrobenzene
  SciTegic03251110552D

  9  9  0  0  0  0            999 V2000
    0.0000    0.0000    0.0000 N   0  0
    0.0000    0.0000    0.0000 O   0  0
    0.0000    0.0000    0.0000 O   0  0
    0.0000    0.0000    0.0000 C   0  0
    0.0000    0.0000    0.0000 C   0  0
    0.0000    0.0000    0.0000 C   0  0
    0.0000    0.0000    0.0000 C   0  0
    0.0000    0.0000    0.0000 C   0  0
    0.0000    0.0000    0.0000 C   0  0
  1  2  1  0
  1  3  1  0
  1  4  1  0
  4  9  1  0
  4  5  2  3
  5  6  1  0
  6  7  2  3
  7  8  1  0
  8  9  2  3
M  END
> <Name>
Nitrobenzene

> <CAS>
000098-95-3

> <VED1>
2.965

> <nHAcc>
2

> <MAXDP>
3.006

> <CIC0>
2.08

> <Log Koc Exp>
2.07

> <Log Koc Pred>
1.75

> <Hat>
0.028

> <Hat Cutoff>
0.161

> <ID Model>
139

> <Smiles>
N(O)(O)c1ccccc1

$$$$
Amino-3-nitrobenzene
  SciTegic03251110552D

 10 10  0  0  0  0            999 V2000
    0.0000    0.0000    0.0000 C   0  0
    0.0000    0.0000    0.0000 C   0  0
    0.0000    0.0000    0.0000 C   0  0
    0.0000    0.0000    0.0000 C   0  0
    0.0000    0.0000    0.0000 C   0  0
    0.0000    0.0000    0.0000 C   0  0
    0.0000    0.0000    0.0000 N   0  0
    0.0000    0.0000    0.0000 O   0  0
    0.0000    0.0000    0.0000 O   0  0
    0.0000    0.0000    0.0000 N   0  0
  1  6  1  0
  1  2  2  3
  2  3  1  0
  3  4  2  3
  3 10  1  0
  4  5  1  0
  5  6  2  3
  5  7  1  0
  7  8  1  0
  7  9  1  0
M  END
> <Name>
Amino-3-nitrobenzene

> <CAS>
000099-09-2

> <VED1>
3.123

> <nHAcc>
3

> <MAXDP>
3.103

> <CIC0>
2.189

> <Log Koc Exp>
1.73

> <Log Koc Pred>
1.68

> <Hat>
0.024

> <Hat Cutoff>
0.161

> <ID Model>
140

> <Smiles>
c1cc(cc(c1)N(O)O)N

$$$$
Dichloran
  SciTegic03251110552D

 12 12  0  0  0  0            999 V2000
    0.0000    0.0000    0.0000 C   0  0
    0.0000    0.0000    0.0000 C   0  0
    0.0000    0.0000    0.0000 C   0  0
    0.0000    0.0000    0.0000 C   0  0
    0.0000    0.0000    0.0000 C   0  0
    0.0000    0.0000    0.0000 C   0  0
    0.0000    0.0000    0.0000 Cl  0  0
    0.0000    0.0000    0.0000 N   0  0
    0.0000    0.0000    0.0000 Cl  0  0
    0.0000    0.0000    0.0000 N   0  0
    0.0000    0.0000    0.0000 O   0  0
    0.0000    0.0000    0.0000 O   0  0
  1  6  1  0
  1  2  2  3
  1 10  1  0
  2  3  1  0
  3  4  2  3
  3  9  1  0
  4  5  1  0
  4  8  1  0
  5  6  2  3
  5  7  1  0
 10 11  1  0
 10 12  1  0
M  END
> <Name>
Dichloran

> <CAS>
000099-30-9

> <VED1>
3.415

> <nHAcc>
3

> <MAXDP>
3.264

> <CIC0>
1.844

> <Log Koc Exp>
3.35

> <Log Koc Pred>
2.36

> <Hat>
0.05

> <Hat Cutoff>
0.161

> <ID Model>
141

> <Smiles>
c1(cc(c(c(c1)Cl)N)Cl)N(O)O

$$$$
3,5-Dinitrobenzoic acid
  SciTegic03251110552D

 15 15  0  0  0  0            999 V2000
    0.0000    0.0000    0.0000 C   0  0
    0.0000    0.0000    0.0000 C   0  0
    0.0000    0.0000    0.0000 C   0  0
    0.0000    0.0000    0.0000 C   0  0
    0.0000    0.0000    0.0000 C   0  0
    0.0000    0.0000    0.0000 C   0  0
    0.0000    0.0000    0.0000 N   0  0
    0.0000    0.0000    0.0000 O   0  0
    0.0000    0.0000    0.0000 O   0  0
    0.0000    0.0000    0.0000 C   0  0
    0.0000    0.0000    0.0000 O   0  0
    0.0000    0.0000    0.0000 O   0  0
    0.0000    0.0000    0.0000 N   0  0
    0.0000    0.0000    0.0000 O   0  0
    0.0000    0.0000    0.0000 O   0  0
  1  6  1  0
  1  2  2  3
  2  3  1  0
  2 13  1  0
  3  4  2  3
  4  5  1  0
  4 10  1  0
  5  6  2  3
  6  7  1  0
  7  8  1  0
  7  9  1  0
 10 11  2  0
 10 12  1  0
 13 14  1  0
 13 15  1  0
M  END
> <Name>
3,5-Dinitrobenzoic acid

> <CAS>
000099-34-3

> <VED1>
3.813

> <nHAcc>
6

> <MAXDP>
3.505

> <CIC0>
2.377

> <Log Koc Exp>
1.9

> <Log Koc Pred>
1.93

> <Hat>
0.056

> <Hat Cutoff>
0.161

> <ID Model>
142

> <Smiles>
c1c(cc(cc1N(O)O)C(=O)O)N(O)O

$$$$
Trinitrobenzol
  SciTegic03251110552D

 15 15  0  0  0  0            999 V2000
    0.0000    0.0000    0.0000 N   0  0
    0.0000    0.0000    0.0000 C   0  0
    0.0000    0.0000    0.0000 C   0  0
    0.0000    0.0000    0.0000 C   0  0
    0.0000    0.0000    0.0000 C   0  0
    0.0000    0.0000    0.0000 C   0  0
    0.0000    0.0000    0.0000 C   0  0
    0.0000    0.0000    0.0000 N   0  0
    0.0000    0.0000    0.0000 O   0  0
    0.0000    0.0000    0.0000 O   0  0
    0.0000    0.0000    0.0000 N   0  0
    0.0000    0.0000    0.0000 O   0  0
    0.0000    0.0000    0.0000 O   0  0
    0.0000    0.0000    0.0000 O   0  0
    0.0000    0.0000    0.0000 O   0  0
  1  2  1  0
  1 14  1  0
  1 15  1  0
  2  7  1  0
  2  3  2  3
  3  4  1  0
  4  5  2  3
  4 11  1  0
  5  6  1  0
  6  7  2  3
  6  8  1  0
  8  9  1  0
  8 10  1  0
 11 12  1  0
 11 13  1  0
M  END
> <Name>
Trinitrobenzol

> <CAS>
000099-35-4

> <VED1>
3.813

> <nHAcc>
6

> <MAXDP>
3.311

> <CIC0>
2.252

> <Log Koc Exp>
1.3

> <Log Koc Pred>
2.03

> <Hat>
0.066

> <Hat Cutoff>
0.161

> <ID Model>
143

> <Smiles>
N(c1cc(cc(c1)N(O)O)N(O)O)(O)O

$$$$
m-Dinitrobenzene
  SciTegic03251110552D

 12 12  0  0  0  0            999 V2000
    0.0000    0.0000    0.0000 C   0  0
    0.0000    0.0000    0.0000 C   0  0
    0.0000    0.0000    0.0000 C   0  0
    0.0000    0.0000    0.0000 C   0  0
    0.0000    0.0000    0.0000 C   0  0
    0.0000    0.0000    0.0000 C   0  0
    0.0000    0.0000    0.0000 N   0  0
    0.0000    0.0000    0.0000 O   0  0
    0.0000    0.0000    0.0000 O   0  0
    0.0000    0.0000    0.0000 N   0  0
    0.0000    0.0000    0.0000 O   0  0
    0.0000    0.0000    0.0000 O   0  0
  1  6  1  0
  1  2  2  3
  1 10  1  0
  2  3  1  0
  3  4  2  3
  4  5  1  0
  5  6  2  3
  5  7  1  0
  7  8  1  0
  7  9  1  0
 10 11  1  0
 10 12  1  0
M  END
> <Name>
m-Dinitrobenzene

> <CAS>
000099-65-0

> <VED1>
3.415

> <nHAcc>
4

> <MAXDP>
3.159

> <CIC0>
2.094

> <Log Koc Exp>
1.56

> <Log Koc Pred>
1.97

> <Hat>
0.035

> <Hat Cutoff>
0.161

> <ID Model>
145

> <Smiles>
c1(cccc(c1)N(O)O)N(O)O

$$$$
Ethyl 4-nitrobenzoate
  SciTegic03251110552D

 14 14  0  0  0  0            999 V2000
    0.0000    0.0000    0.0000 C   0  0
    0.0000    0.0000    0.0000 C   0  0
    0.0000    0.0000    0.0000 O   0  0
    0.0000    0.0000    0.0000 C   0  0
    0.0000    0.0000    0.0000 O   0  0
    0.0000    0.0000    0.0000 C   0  0
    0.0000    0.0000    0.0000 C   0  0
    0.0000    0.0000    0.0000 C   0  0
    0.0000    0.0000    0.0000 C   0  0
    0.0000    0.0000    0.0000 C   0  0
    0.0000    0.0000    0.0000 C   0  0
    0.0000    0.0000    0.0000 N   0  0
    0.0000    0.0000    0.0000 O   0  0
    0.0000    0.0000    0.0000 O   0  0
  1  2  1  0
  2  3  1  0
  3  4  1  0
  4  5  2  0
  4  6  1  0
  6 11  1  0
  6  7  2  3
  7  8  1  0
  8  9  2  3
  9 10  1  0
  9 12  1  0
 10 11  2  3
 12 13  1  0
 12 14  1  0
M  END
> <Name>
Ethyl 4-nitrobenzoate

> <CAS>
000099-77-4

> <VED1>
3.674

> <nHAcc>
4

> <MAXDP>
4.134

> <CIC0>
2.829

> <Log Koc Exp>
2.48

> <Log Koc Pred>
1.97

> <Hat>
0.017

> <Hat Cutoff>
0.161

> <ID Model>
146

> <Smiles>
CCOC(=O)c1ccc(cc1)N(O)O

$$$$
4-Methylbenzoic acid
  SciTegic03251110552D

 10 10  0  0  0  0            999 V2000
    0.0000    0.0000    0.0000 C   0  0
    0.0000    0.0000    0.0000 C   0  0
    0.0000    0.0000    0.0000 C   0  0
    0.0000    0.0000    0.0000 C   0  0
    0.0000    0.0000    0.0000 C   0  0
    0.0000    0.0000    0.0000 C   0  0
    0.0000    0.0000    0.0000 C   0  0
    0.0000    0.0000    0.0000 O   0  0
    0.0000    0.0000    0.0000 O   0  0
    0.0000    0.0000    0.0000 C   0  0
  1  6  1  0
  1  2  2  3
  1 10  1  0
  2  3  1  0
  3  4  2  3
  4  5  1  0
  4  7  1  0
  5  6  2  3
  7  8  2  0
  7  9  1  0
M  END
> <Name>
4-Methylbenzoic acid

> <CAS>
000099-94-5

> <VED1>
3.117

> <nHAcc>
2

> <MAXDP>
3.312

> <CIC0>
2.778

> <Log Koc Exp>
1.77

> <Log Koc Pred>
1.75

> <Hat>
0.024

> <Hat Cutoff>
0.161

> <ID Model>
147

> <Smiles>
c1(ccc(cc1)C(=O)O)C

$$$$
4-Hydroxybenzoic Acid
  SciTegic03251110552D

 10 10  0  0  0  0            999 V2000
    0.0000    0.0000    0.0000 C   0  0
    0.0000    0.0000    0.0000 C   0  0
    0.0000    0.0000    0.0000 C   0  0
    0.0000    0.0000    0.0000 C   0  0
    0.0000    0.0000    0.0000 C   0  0
    0.0000    0.0000    0.0000 C   0  0
    0.0000    0.0000    0.0000 C   0  0
    0.0000    0.0000    0.0000 O   0  0
    0.0000    0.0000    0.0000 O   0  0
    0.0000    0.0000    0.0000 O   0  0
  1  6  1  0
  1  2  2  3
  1 10  1  0
  2  3  1  0
  3  4  2  3
  4  5  1  0
  4  7  1  0
  5  6  2  3
  7  8  2  0
  7  9  1  0
M  END
> <Name>
4-Hydroxybenzoic Acid

> <CAS>
000099-96-7

> <VED1>
3.117

> <nHAcc>
3

> <MAXDP>
3.231

> <CIC0>
2.495

> <Log Koc Exp>
1.43

> <Log Koc Pred>
1.53

> <Hat>
0.022

> <Hat Cutoff>
0.161

> <ID Model>
148

> <Smiles>
c1(ccc(cc1)C(=O)O)O

$$$$
Amino-4-nitrobenzene
  SciTegic03251110552D

 10 10  0  0  0  0            999 V2000
    0.0000    0.0000    0.0000 O   0  0
    0.0000    0.0000    0.0000 N   0  0
    0.0000    0.0000    0.0000 C   0  0
    0.0000    0.0000    0.0000 C   0  0
    0.0000    0.0000    0.0000 C   0  0
    0.0000    0.0000    0.0000 C   0  0
    0.0000    0.0000    0.0000 C   0  0
    0.0000    0.0000    0.0000 C   0  0
    0.0000    0.0000    0.0000 N   0  0
    0.0000    0.0000    0.0000 O   0  0
  1  2  1  0
  2  3  1  0
  2 10  1  0
  3  8  1  0
  3  4  2  3
  4  5  1  0
  5  6  2  3
  6  7  1  0
  6  9  1  0
  7  8  2  3
M  END
> <Name>
Amino-4-nitrobenzene

> <CAS>
000100-01-6

> <VED1>
3.117

> <nHAcc>
3

> <MAXDP>
3.077

> <CIC0>
2.189

> <Log Koc Exp>
1.88

> <Log Koc Pred>
1.68

> <Hat>
0.024

> <Hat Cutoff>
0.161

> <ID Model>
149

> <Smiles>
ON(c1ccc(cc1)N)O

$$$$
4-Nitrophenol
  SciTegic03251110552D

 10 10  0  0  0  0            999 V2000
    0.0000    0.0000    0.0000 C   0  0
    0.0000    0.0000    0.0000 C   0  0
    0.0000    0.0000    0.0000 C   0  0
    0.0000    0.0000    0.0000 C   0  0
    0.0000    0.0000    0.0000 C   0  0
    0.0000    0.0000    0.0000 C   0  0
    0.0000    0.0000    0.0000 N   0  0
    0.0000    0.0000    0.0000 O   0  0
    0.0000    0.0000    0.0000 O   0  0
    0.0000    0.0000    0.0000 O   0  0
  1  6  1  0
  1  2  2  3
  1 10  1  0
  2  3  1  0
  3  4  2  3
  4  5  1  0
  4  7  1  0
  5  6  2  3
  7  8  1  0
  7  9  1  0
M  END
> <Name>
4-Nitrophenol

> <CAS>
000100-02-7

> <VED1>
3.117

> <nHAcc>
3

> <MAXDP>
3.036

> <CIC0>
2.125

> <Log Koc Exp>
2.06

> <Log Koc Pred>
1.71

> <Hat>
0.026

> <Hat Cutoff>
0.161

> <ID Model>
150

> <Smiles>
c1(ccc(cc1)N(O)O)O

$$$$
Ethylbenzene
  SciTegic03251110552D

  8  8  0  0  0  0            999 V2000
    0.0000    0.0000    0.0000 C   0  0
    0.0000    0.0000    0.0000 C   0  0
    0.0000    0.0000    0.0000 C   0  0
    0.0000    0.0000    0.0000 C   0  0
    0.0000    0.0000    0.0000 C   0  0
    0.0000    0.0000    0.0000 C   0  0
    0.0000    0.0000    0.0000 C   0  0
    0.0000    0.0000    0.0000 C   0  0
  1  6  1  0
  1  2  2  3
  1  7  1  0
  2  3  1  0
  3  4  2  3
  4  5  1  0
  5  6  2  3
  7  8  1  0
M  END
> <Name>
Ethylbenzene

> <CAS>
000100-41-4

> <VED1>
2.797

> <nHAcc>
0

> <MAXDP>
0.162

> <CIC0>
3.179

> <Log Koc Exp>
2.32

> <Log Koc Pred>
2.59

> <Hat>
0.08

> <Hat Cutoff>
0.161

> <ID Model>
151

> <Smiles>
c1(ccccc1)CC

$$$$
Styrene
  SciTegic03251110552D

  8  8  0  0  0  0            999 V2000
    0.0000    0.0000    0.0000 C   0  0
    0.0000    0.0000    0.0000 C   0  0
    0.0000    0.0000    0.0000 C   0  0
    0.0000    0.0000    0.0000 C   0  0
    0.0000    0.0000    0.0000 C   0  0
    0.0000    0.0000    0.0000 C   0  0
    0.0000    0.0000    0.0000 C   0  0
    0.0000    0.0000    0.0000 C   0  0
  1  6  1  0
  1  2  2  3
  2  3  1  0
  3  4  2  3
  3  7  1  0
  4  5  1  0
  5  6  2  3
  7  8  2  0
M  END
> <Name>
Styrene

> <CAS>
000100-42-5

> <VED1>
2.797

> <nHAcc>
0

> <MAXDP>
0.631

> <CIC0>
3

> <Log Koc Exp>
2.96

> <Log Koc Pred>
2.5

> <Hat>
0.056

> <Hat Cutoff>
0.161

> <ID Model>
152

> <Smiles>
c1cc(ccc1)C=C

$$$$
Benzyl alcohol
  SciTegic03251110552D

  8  8  0  0  0  0            999 V2000
    0.0000    0.0000    0.0000 C   0  0
    0.0000    0.0000    0.0000 C   0  0
    0.0000    0.0000    0.0000 C   0  0
    0.0000    0.0000    0.0000 C   0  0
    0.0000    0.0000    0.0000 C   0  0
    0.0000    0.0000    0.0000 C   0  0
    0.0000    0.0000    0.0000 C   0  0
    0.0000    0.0000    0.0000 O   0  0
  1  6  1  0
  1  2  2  3
  2  3  1  0
  2  7  1  0
  3  4  2  3
  4  5  1  0
  5  6  2  3
  7  8  1  0
M  END
> <Name>
Benzyl alcohol

> <CAS>
000100-51-6

> <VED1>
2.797

> <nHAcc>
1

> <MAXDP>
2.538

> <CIC0>
2.728

> <Log Koc Exp>
0.7

> <Log Koc Pred>
1.67

> <Hat>
0.034

> <Hat Cutoff>
0.161

> <ID Model>
153

> <Smiles>
c1c(cccc1)CO

$$$$
3-Cyanopyridine
  SciTegic03251110552D

  8  8  0  0  0  0            999 V2000
    0.0000    0.0000    0.0000 C   0  0
    0.0000    0.0000    0.0000 N   0  0
    0.0000    0.0000    0.0000 C   0  0
    0.0000    0.0000    0.0000 C   0  0
    0.0000    0.0000    0.0000 C   0  0
    0.0000    0.0000    0.0000 C   0  0
    0.0000    0.0000    0.0000 N   0  0
    0.0000    0.0000    0.0000 C   0  0
  1  2  3  0
  1  3  1  0
  3  8  1  0
  3  4  2  3
  4  5  1  0
  5  6  2  3
  6  7  1  0
  7  8  2  3
M  END
> <Name>
3-Cyanopyridine

> <CAS>
000100-54-9

> <VED1>
2.797

> <nHAcc>
2

> <MAXDP>
2.248

> <CIC0>
2.126

> <Log Koc Exp>
1.65

> <Log Koc Pred>
1.62

> <Hat>
0.028

> <Hat Cutoff>
0.161

> <ID Model>
154

> <Smiles>
C(#N)c1cccnc1

$$$$
Anisole
  SciTegic03251110552D

  8  8  0  0  0  0            999 V2000
    0.0000    0.0000    0.0000 C   0  0
    0.0000    0.0000    0.0000 C   0  0
    0.0000    0.0000    0.0000 C   0  0
    0.0000    0.0000    0.0000 C   0  0
    0.0000    0.0000    0.0000 C   0  0
    0.0000    0.0000    0.0000 C   0  0
    0.0000    0.0000    0.0000 O   0  0
    0.0000    0.0000    0.0000 C   0  0
  1  6  1  0
  1  2  2  3
  2  3  1  0
  3  4  2  3
  3  7  1  0
  4  5  1  0
  5  6  2  3
  7  8  1  0
M  END
> <Name>
Anisole

> <CAS>
000100-66-3

> <VED1>
2.797

> <nHAcc>
1

> <MAXDP>
1.414

> <CIC0>
2.728

> <Log Koc Exp>
1.54

> <Log Koc Pred>
2.02

> <Hat>
0.037

> <Hat Cutoff>
0.161

> <ID Model>
156

> <Smiles>
c1cc(ccc1)OC

$$$$
Anilazine
  SciTegic03251110552D

 16 17  0  0  0  0            999 V2000
    0.0000    0.0000    0.0000 N   0  0
    0.0000    0.0000    0.0000 C   0  0
    0.0000    0.0000    0.0000 N   0  0
    0.0000    0.0000    0.0000 C   0  0
    0.0000    0.0000    0.0000 N   0  0
    0.0000    0.0000    0.0000 C   0  0
    0.0000    0.0000    0.0000 Cl  0  0
    0.0000    0.0000    0.0000 N   0  0
    0.0000    0.0000    0.0000 C   0  0
    0.0000    0.0000    0.0000 C   0  0
    0.0000    0.0000    0.0000 C   0  0
    0.0000    0.0000    0.0000 C   0  0
    0.0000    0.0000    0.0000 C   0  0
    0.0000    0.0000    0.0000 C   0  0
    0.0000    0.0000    0.0000 Cl  0  0
    0.0000    0.0000    0.0000 Cl  0  0
  1  6  1  0
  1  2  2  3
  2  3  1  0
  2 16  1  0
  3  4  2  3
  4  5  1  0
  4  8  1  0
  5  6  2  3
  6  7  1  0
  8  9  1  0
  9 14  1  0
  9 10  2  3
 10 11  1  0
 11 12  2  3
 12 13  1  0
 13 14  2  3
 14 15  1  0
M  END
> <Name>
Anilazine

> <CAS>
000101-05-3

> <VED1>
3.952

> <nHAcc>
4

> <MAXDP>
1.843

> <CIC0>
2.519

> <Log Koc Exp>
3.24

> <Log Koc Pred>
3.36

> <Hat>
0.063

> <Hat Cutoff>
0.161

> <ID Model>
157

> <Smiles>
n1c(nc(nc1Cl)Nc1ccccc1Cl)Cl

$$$$
Chlorpropham
  SciTegic03251110552D

 14 14  0  0  0  0            999 V2000
    0.0000    0.0000    0.0000 C   0  0
    0.0000    0.0000    0.0000 C   0  0
    0.0000    0.0000    0.0000 C   0  0
    0.0000    0.0000    0.0000 C   0  0
    0.0000    0.0000    0.0000 C   0  0
    0.0000    0.0000    0.0000 C   0  0
    0.0000    0.0000    0.0000 N   0  0
    0.0000    0.0000    0.0000 C   0  0
    0.0000    0.0000    0.0000 O   0  0
    0.0000    0.0000    0.0000 O   0  0
    0.0000    0.0000    0.0000 C   0  0
    0.0000    0.0000    0.0000 C   0  0
    0.0000    0.0000    0.0000 C   0  0
    0.0000    0.0000    0.0000 Cl  0  0
  1  6  1  0
  1  2  2  3
  2  3  1  0
  3  4  2  3
  3 14  1  0
  4  5  1  0
  5  6  2  3
  5  7  1  0
  7  8  1  0
  8  9  2  0
  8 10  1  0
 10 11  1  0
 11 12  1  0
 11 13  1  0
M  END
> <Name>
Chlorpropham

> <CAS>
000101-21-3

> <VED1>
3.69

> <nHAcc>
3

> <MAXDP>
4.158

> <CIC0>
3.009

> <Log Koc Exp>
2.65

> <Log Koc Pred>
2.28

> <Hat>
0.018

> <Hat Cutoff>
0.161

> <ID Model>
158

> <Smiles>
c1cc(cc(c1)NC(=O)OC(C)C)Cl

$$$$
Fenuron
  SciTegic03251110552D

 12 12  0  0  0  0            999 V2000
    0.0000    0.0000    0.0000 C   0  0
    0.0000    0.0000    0.0000 C   0  0
    0.0000    0.0000    0.0000 C   0  0
    0.0000    0.0000    0.0000 C   0  0
    0.0000    0.0000    0.0000 C   0  0
    0.0000    0.0000    0.0000 C   0  0
    0.0000    0.0000    0.0000 N   0  0
    0.0000    0.0000    0.0000 C   0  0
    0.0000    0.0000    0.0000 O   0  0
    0.0000    0.0000    0.0000 N   0  0
    0.0000    0.0000    0.0000 C   0  0
    0.0000    0.0000    0.0000 C   0  0
  1  6  1  0
  1  2  2  3
  2  3  1  0
  2  7  1  0
  3  4  2  3
  4  5  1  0
  5  6  2  3
  7  8  1  0
  8  9  2  0
  8 10  1  0
 10 11  1  0
 10 12  1  0
M  END
> <Name>
Fenuron

> <CAS>
000101-42-8

> <VED1>
3.419

> <nHAcc>
3

> <MAXDP>
4.127

> <CIC0>
3.065

> <Log Koc Exp>
1.4

> <Log Koc Pred>
1.7

> <Hat>
0.027

> <Hat Cutoff>
0.161

> <ID Model>
159

> <Smiles>
c1c(cccc1)NC(=O)N(C)C

$$$$
4,4'-Methylenebis(N,N-Dimethylaniline)
  SciTegic03251110552D

 19 20  0  0  0  0            999 V2000
    0.0000    0.0000    0.0000 N   0  0
    0.0000    0.0000    0.0000 C   0  0
    0.0000    0.0000    0.0000 C   0  0
    0.0000    0.0000    0.0000 C   0  0
    0.0000    0.0000    0.0000 C   0  0
    0.0000    0.0000    0.0000 C   0  0
    0.0000    0.0000    0.0000 C   0  0
    0.0000    0.0000    0.0000 C   0  0
    0.0000    0.0000    0.0000 C   0  0
    0.0000    0.0000    0.0000 C   0  0
    0.0000    0.0000    0.0000 C   0  0
    0.0000    0.0000    0.0000 C   0  0
    0.0000    0.0000    0.0000 C   0  0
    0.0000    0.0000    0.0000 C   0  0
    0.0000    0.0000    0.0000 C   0  0
    0.0000    0.0000    0.0000 C   0  0
    0.0000    0.0000    0.0000 N   0  0
    0.0000    0.0000    0.0000 C   0  0
    0.0000    0.0000    0.0000 C   0  0
  1  2  1  0
  1  3  1  0
  1  4  1  0
  4  9  1  0
  4  5  2  3
  5  6  1  0
  6  7  2  3
  7  8  1  0
  7 10  1  0
  8  9  2  3
 10 11  1  0
 11 16  1  0
 11 12  2  3
 12 13  1  0
 13 14  2  3
 14 15  1  0
 14 17  1  0
 15 16  2  3
 17 18  1  0
 17 19  1  0
M  END
> <Name>
4,4'-Methylenebis(N,N-Dimethylaniline)

> <CAS>
000101-61-1

> <VED1>
4.288

> <nHAcc>
2

> <MAXDP>
0.204

> <CIC0>
4.136

> <Log Koc Exp>
3.96

> <Log Koc Pred>
4.72

> <Hat>
0.127

> <Hat Cutoff>
0.161

> <ID Model>
160

> <Smiles>
N(C)(C)c1ccc(cc1)Cc1ccc(cc1)N(C)C

$$$$
4,4'Methylene dianiline
  SciTegic03251110552D

 15 16  0  0  0  0            999 V2000
    0.0000    0.0000    0.0000 C   0  0
    0.0000    0.0000    0.0000 C   0  0
    0.0000    0.0000    0.0000 C   0  0
    0.0000    0.0000    0.0000 C   0  0
    0.0000    0.0000    0.0000 C   0  0
    0.0000    0.0000    0.0000 C   0  0
    0.0000    0.0000    0.0000 C   0  0
    0.0000    0.0000    0.0000 C   0  0
    0.0000    0.0000    0.0000 C   0  0
    0.0000    0.0000    0.0000 C   0  0
    0.0000    0.0000    0.0000 C   0  0
    0.0000    0.0000    0.0000 C   0  0
    0.0000    0.0000    0.0000 C   0  0
    0.0000    0.0000    0.0000 N   0  0
    0.0000    0.0000    0.0000 N   0  0
  1  6  1  0
  1  2  2  3
  1 15  1  0
  2  3  1  0
  3  4  2  3
  4  5  1  0
  4  7  1  0
  5  6  2  3
  7  8  1  0
  8 13  1  0
  8  9  2  3
  9 10  1  0
 10 11  2  3
 11 12  1  0
 11 14  1  0
 12 13  2  3
M  END
> <Name>
4,4'Methylene dianiline

> <CAS>
000101-77-9

> <VED1>
3.817

> <nHAcc>
2

> <MAXDP>
1.623

> <CIC0>
3.566

> <Log Koc Exp>
1.99

> <Log Koc Pred>
3.48

> <Hat>
0.039

> <Hat Cutoff>
0.161

> <ID Model>
161

> <Smiles>
c1(ccc(cc1)Cc1ccc(cc1)N)N

$$$$
Diphenyl ether
  SciTegic03251110552D

 13 14  0  0  0  0            999 V2000
    0.0000    0.0000    0.0000 C   0  0
    0.0000    0.0000    0.0000 C   0  0
    0.0000    0.0000    0.0000 O   0  0
    0.0000    0.0000    0.0000 C   0  0
    0.0000    0.0000    0.0000 C   0  0
    0.0000    0.0000    0.0000 C   0  0
    0.0000    0.0000    0.0000 C   0  0
    0.0000    0.0000    0.0000 C   0  0
    0.0000    0.0000    0.0000 C   0  0
    0.0000    0.0000    0.0000 C   0  0
    0.0000    0.0000    0.0000 C   0  0
    0.0000    0.0000    0.0000 C   0  0
    0.0000    0.0000    0.0000 C   0  0
  1 13  1  0
  1  2  2  3
  2  3  1  0
  2 10  1  0
  3  4  1  0
  4  9  1  0
  4  5  2  3
  5  6  1  0
  6  7  2  3
  7  8  1  0
  8  9  2  3
 10 11  2  3
 11 12  1  0
 12 13  2  3
M  END
> <Name>
Diphenyl ether

> <CAS>
000101-84-8

> <VED1>
3.564

> <nHAcc>
1

> <MAXDP>
2.078

> <CIC0>
3.315

> <Log Koc Exp>
3.29

> <Log Koc Pred>
3.23

> <Hat>
0.024

> <Hat Cutoff>
0.161

> <ID Model>
162

> <Smiles>
c1c(Oc2ccccc2)cccc1

$$$$
Ethyl-N-phenylcarbamate
  SciTegic03251110552D

 12 12  0  0  0  0            999 V2000
    0.0000    0.0000    0.0000 C   0  0
    0.0000    0.0000    0.0000 C   0  0
    0.0000    0.0000    0.0000 O   0  0
    0.0000    0.0000    0.0000 C   0  0
    0.0000    0.0000    0.0000 O   0  0
    0.0000    0.0000    0.0000 N   0  0
    0.0000    0.0000    0.0000 C   0  0
    0.0000    0.0000    0.0000 C   0  0
    0.0000    0.0000    0.0000 C   0  0
    0.0000    0.0000    0.0000 C   0  0
    0.0000    0.0000    0.0000 C   0  0
    0.0000    0.0000    0.0000 C   0  0
  1  2  1  0
  2  3  1  0
  3  4  1  0
  4  5  2  0
  4  6  1  0
  6  7  1  0
  7 12  1  0
  7  8  2  3
  8  9  1  0
  9 10  2  3
 10 11  1  0
 11 12  2  3
M  END
> <Name>
Ethyl-N-phenylcarbamate

> <CAS>
000101-99-5

> <VED1>
3.413

> <nHAcc>
3

> <MAXDP>
3.879

> <CIC0>
2.982

> <Log Koc Exp>
1.82

> <Log Koc Pred>
1.79

> <Hat>
0.021

> <Hat Cutoff>
0.161

> <ID Model>
164

> <Smiles>
CCOC(=O)Nc1ccccc1

$$$$
1,3,5-Triethylbenzene
  SciTegic03251110552D

 12 12  0  0  0  0            999 V2000
    0.0000    0.0000    0.0000 C   0  0
    0.0000    0.0000    0.0000 C   0  0
    0.0000    0.0000    0.0000 C   0  0
    0.0000    0.0000    0.0000 C   0  0
    0.0000    0.0000    0.0000 C   0  0
    0.0000    0.0000    0.0000 C   0  0
    0.0000    0.0000    0.0000 C   0  0
    0.0000    0.0000    0.0000 C   0  0
    0.0000    0.0000    0.0000 C   0  0
    0.0000    0.0000    0.0000 C   0  0
    0.0000    0.0000    0.0000 C   0  0
    0.0000    0.0000    0.0000 C   0  0
  1  6  1  0
  1  2  2  3
  1 11  1  0
  2  3  1  0
  3  4  2  3
  3  9  1  0
  4  5  1  0
  5  6  2  3
  5  7  1  0
  7  8  1  0
  9 10  1  0
 11 12  1  0
M  END
> <Name>
1,3,5-Triethylbenzene

> <CAS>
000102-25-0

> <VED1>
3.404

> <nHAcc>
0

> <MAXDP>
0.319

> <CIC0>
3.936

> <Log Koc Exp>
4.12

> <Log Koc Pred>
3.57

> <Hat>
0.1

> <Hat Cutoff>
0.161

> <ID Model>
165

> <Smiles>
c1(cc(cc(c1)CC)CC)CC

$$$$
Bis(2-ethylhexyl) adipate
  SciTegic03251110552D

 28 27  0  0  0  0            999 V2000
    0.0000    0.0000    0.0000 C   0  0
    0.0000    0.0000    0.0000 C   0  0
    0.0000    0.0000    0.0000 C   0  0
    0.0000    0.0000    0.0000 C   0  0
    0.0000    0.0000    0.0000 C   0  0
    0.0000    0.0000    0.0000 H   0  0
    0.0000    0.0000    0.0000 C   0  0
    0.0000    0.0000    0.0000 C   0  0
    0.0000    0.0000    0.0000 C   0  0
    0.0000    0.0000    0.0000 O   0  0
    0.0000    0.0000    0.0000 C   0  0
    0.0000    0.0000    0.0000 O   0  0
    0.0000    0.0000    0.0000 C   0  0
    0.0000    0.0000    0.0000 C   0  0
    0.0000    0.0000    0.0000 C   0  0
    0.0000    0.0000    0.0000 C   0  0
    0.0000    0.0000    0.0000 C   0  0
    0.0000    0.0000    0.0000 O   0  0
    0.0000    0.0000    0.0000 O   0  0
    0.0000    0.0000    0.0000 C   0  0
    0.0000    0.0000    0.0000 C   0  0
    0.0000    0.0000    0.0000 H   0  0
    0.0000    0.0000    0.0000 C   0  0
    0.0000    0.0000    0.0000 C   0  0
    0.0000    0.0000    0.0000 C   0  0
    0.0000    0.0000    0.0000 C   0  0
    0.0000    0.0000    0.0000 C   0  0
    0.0000    0.0000    0.0000 C   0  0
  1  2  1  0
  2  3  1  0
  3  4  1  0
  4  5  1  0
  5  6  1  0
  5  7  1  0
  5  9  1  0
  7  8  1  0
  9 10  1  0
 10 11  1  0
 11 12  2  0
 11 13  1  0
 13 14  1  0
 14 15  1  0
 15 16  1  0
 16 17  1  0
 17 18  2  0
 17 19  1  0
 19 20  1  0
 20 21  1  0
 21 22  1  0
 21 23  1  0
 21 25  1  0
 23 24  1  0
 25 26  1  0
 26 27  1  0
 27 28  1  0
M  END
> <Name>
Bis(2-ethylhexyl) adipate

> <CAS>
000103-23-1

> <VED1>
5.019

> <nHAcc>
4

> <MAXDP>
4.798

> <CIC0>
4.891

> <Log Koc Exp>
4.19

> <Log Koc Pred>
3.91

> <Hat>
0.081

> <Hat Cutoff>
0.161

> <ID Model>
166

> <Smiles>
CCCC[C@@H](CC)COC(=O)CCCCC(=O)OC[C@@H](CC)CCCC

$$$$
Azobenzene
  SciTegic03251110552D

 14 15  0  0  0  0            999 V2000
    0.0000    0.0000    0.0000 C   0  0
    0.0000    0.0000    0.0000 C   0  0
    0.0000    0.0000    0.0000 C   0  0
    0.0000    0.0000    0.0000 C   0  0
    0.0000    0.0000    0.0000 C   0  0
    0.0000    0.0000    0.0000 C   0  0
    0.0000    0.0000    0.0000 N   0  0
    0.0000    0.0000    0.0000 N   0  0
    0.0000    0.0000    0.0000 C   0  0
    0.0000    0.0000    0.0000 C   0  0
    0.0000    0.0000    0.0000 C   0  0
    0.0000    0.0000    0.0000 C   0  0
    0.0000    0.0000    0.0000 C   0  0
    0.0000    0.0000    0.0000 C   0  0
  1  6  1  0
  1  2  2  3
  2  3  1  0
  3  4  2  3
  4  5  1  0
  4  7  1  0
  5  6  2  3
  7  8  1  0
  8  9  1  0
  9 14  1  0
  9 10  2  3
 10 11  1  0
 11 12  2  3
 12 13  1  0
 13 14  2  3
M  END
> <Name>
Azobenzene

> <CAS>
000103-33-3

> <VED1>
3.698

> <nHAcc>
2

> <MAXDP>
1.101

> <CIC0>
3.26

> <Log Koc Exp>
3.22

> <Log Koc Pred>
3.49

> <Hat>
0.045

> <Hat Cutoff>
0.161

> <ID Model>
167

> <Smiles>
c1ccc(cc1)NNc1ccccc1

$$$$
Propylbenzene
  SciTegic03251110552D

  9  9  0  0  0  0            999 V2000
    0.0000    0.0000    0.0000 C   0  0
    0.0000    0.0000    0.0000 C   0  0
    0.0000    0.0000    0.0000 C   0  0
    0.0000    0.0000    0.0000 C   0  0
    0.0000    0.0000    0.0000 C   0  0
    0.0000    0.0000    0.0000 C   0  0
    0.0000    0.0000    0.0000 C   0  0
    0.0000    0.0000    0.0000 C   0  0
    0.0000    0.0000    0.0000 C   0  0
  1  6  1  0
  1  2  2  3
  2  3  1  0
  3  4  2  3
  3  7  1  0
  4  5  1  0
  5  6  2  3
  7  8  1  0
  8  9  1  0
M  END
> <Name>
Propylbenzene

> <CAS>
000103-65-1

> <VED1>
2.959

> <nHAcc>
0

> <MAXDP>
0.201

> <CIC0>
3.407

> <Log Koc Exp>
2.87

> <Log Koc Pred>
2.84

> <Hat>
0.085

> <Hat Cutoff>
0.161

> <ID Model>
168

> <Smiles>
c1cc(ccc1)CCC

$$$$
2-Pyridineethanol
  SciTegic03251110552D

  9  9  0  0  0  0            999 V2000
    0.0000    0.0000    0.0000 C   0  0
    0.0000    0.0000    0.0000 C   0  0
    0.0000    0.0000    0.0000 C   0  0
    0.0000    0.0000    0.0000 C   0  0
    0.0000    0.0000    0.0000 C   0  0
    0.0000    0.0000    0.0000 C   0  0
    0.0000    0.0000    0.0000 C   0  0
    0.0000    0.0000    0.0000 N   0  0
    0.0000    0.0000    0.0000 O   0  0
  1  2  1  0
  1  9  1  0
  2  3  1  0
  3  8  1  0
  3  4  2  3
  4  5  1  0
  5  6  2  3
  6  7  1  0
  7  8  2  3
M  END
> <Name>
2-Pyridineethanol

> <CAS>
000103-74-2

> <VED1>
2.959

> <nHAcc>
2

> <MAXDP>
2.48

> <CIC0>
2.677

> <Log Koc Exp>
1.45

> <Log Koc Pred>
1.71

> <Hat>
0.025

> <Hat Cutoff>
0.161

> <ID Model>
169

> <Smiles>
C(Cc1ccccn1)O

$$$$
Phenylacetic Acid
  SciTegic03251110552D

 10 10  0  0  0  0            999 V2000
    0.0000    0.0000    0.0000 C   0  0
    0.0000    0.0000    0.0000 C   0  0
    0.0000    0.0000    0.0000 C   0  0
    0.0000    0.0000    0.0000 C   0  0
    0.0000    0.0000    0.0000 C   0  0
    0.0000    0.0000    0.0000 C   0  0
    0.0000    0.0000    0.0000 C   0  0
    0.0000    0.0000    0.0000 C   0  0
    0.0000    0.0000    0.0000 O   0  0
    0.0000    0.0000    0.0000 O   0  0
  1  6  1  0
  1  2  2  3
  1  7  1  0
  2  3  1  0
  3  4  2  3
  4  5  1  0
  5  6  2  3
  7  8  1  0
  8  9  2  0
  8 10  1  0
M  END
> <Name>
Phenylacetic Acid

> <CAS>
000103-83-2

> <VED1>
3.122

> <nHAcc>
2

> <MAXDP>
3.169

> <CIC0>
2.778

> <Log Koc Exp>
1.45

> <Log Koc Pred>
1.8

> <Hat>
0.022

> <Hat Cutoff>
0.161

> <ID Model>
170

> <Smiles>
c1(ccccc1)CC(=O)O

$$$$
Acetanilide
  SciTegic03251110552D

 10 10  0  0  0  0            999 V2000
    0.0000    0.0000    0.0000 C   0  0
    0.0000    0.0000    0.0000 O   0  0
    0.0000    0.0000    0.0000 C   0  0
    0.0000    0.0000    0.0000 N   0  0
    0.0000    0.0000    0.0000 C   0  0
    0.0000    0.0000    0.0000 C   0  0
    0.0000    0.0000    0.0000 C   0  0
    0.0000    0.0000    0.0000 C   0  0
    0.0000    0.0000    0.0000 C   0  0
    0.0000    0.0000    0.0000 C   0  0
  1  2  2  0
  1  3  1  0
  1  4  1  0
  4  5  1  0
  5 10  1  0
  5  6  2  3
  6  7  1  0
  7  8  2  3
  8  9  1  0
  9 10  2  3
M  END
> <Name>
Acetanilide

> <CAS>
000103-84-4

> <VED1>
3.122

> <nHAcc>
2

> <MAXDP>
3.502

> <CIC0>
2.765

> <Log Koc Exp>
1.43

> <Log Koc Pred>
1.7

> <Hat>
0.026

> <Hat Cutoff>
0.161

> <ID Model>
171

> <Smiles>
C(=O)(C)Nc1ccccc1

$$$$
4-Bromoacetanilide
  SciTegic03251110552D

 11 11  0  0  0  0            999 V2000
    0.0000    0.0000    0.0000 C   0  0
    0.0000    0.0000    0.0000 O   0  0
    0.0000    0.0000    0.0000 N   0  0
    0.0000    0.0000    0.0000 C   0  0
    0.0000    0.0000    0.0000 C   0  0
    0.0000    0.0000    0.0000 C   0  0
    0.0000    0.0000    0.0000 C   0  0
    0.0000    0.0000    0.0000 C   0  0
    0.0000    0.0000    0.0000 C   0  0
    0.0000    0.0000    0.0000 Br  0  0
    0.0000    0.0000    0.0000 C   0  0
  1  2  2  0
  1  3  1  0
  1 11  1  0
  3  4  1  0
  4  9  1  0
  4  5  2  3
  5  6  1  0
  6  7  2  3
  7  8  1  0
  7 10  1  0
  8  9  2  3
M  END
> <Name>
4-Bromoacetanilide

> <CAS>
000103-88-8

> <VED1>
3.267

> <nHAcc>
2

> <MAXDP>
3.575

> <CIC0>
2.526

> <Log Koc Exp>
1.95

> <Log Koc Pred>
2.06

> <Hat>
0.023

> <Hat Cutoff>
0.161

> <ID Model>
172

> <Smiles>
C(=O)(Nc1ccc(cc1)Br)C

$$$$
n-Buthylbenzene
  SciTegic03251110552D

 10 10  0  0  0  0            999 V2000
    0.0000    0.0000    0.0000 C   0  0
    0.0000    0.0000    0.0000 C   0  0
    0.0000    0.0000    0.0000 C   0  0
    0.0000    0.0000    0.0000 C   0  0
    0.0000    0.0000    0.0000 C   0  0
    0.0000    0.0000    0.0000 C   0  0
    0.0000    0.0000    0.0000 C   0  0
    0.0000    0.0000    0.0000 C   0  0
    0.0000    0.0000    0.0000 C   0  0
    0.0000    0.0000    0.0000 C   0  0
  1  6  1  0
  1  2  2  3
  2  3  1  0
  3  4  2  3
  4  5  1  0
  5  6  2  3
  6  7  1  0
  7  8  1  0
  8  9  1  0
  9 10  1  0
M  END
> <Name>
n-Buthylbenzene

> <CAS>
000104-51-8

> <VED1>
3.116

> <nHAcc>
0

> <MAXDP>
0.225

> <CIC0>
3.605

> <Log Koc Exp>
3.4

> <Log Koc Pred>
3.1

> <Hat>
0.09

> <Hat Cutoff>
0.161

> <ID Model>
173

> <Smiles>
c1ccccc1CCCC

$$$$
Ethyl heptanoate
  SciTegic03251110552D

 11 10  0  0  0  0            999 V2000
    0.0000    0.0000    0.0000 C   0  0
    0.0000    0.0000    0.0000 C   0  0
    0.0000    0.0000    0.0000 C   0  0
    0.0000    0.0000    0.0000 C   0  0
    0.0000    0.0000    0.0000 C   0  0
    0.0000    0.0000    0.0000 C   0  0
    0.0000    0.0000    0.0000 C   0  0
    0.0000    0.0000    0.0000 O   0  0
    0.0000    0.0000    0.0000 O   0  0
    0.0000    0.0000    0.0000 C   0  0
    0.0000    0.0000    0.0000 C   0  0
  1  2  1  0
  2  3  1  0
  3  4  1  0
  4  5  1  0
  5  6  1  0
  6  7  1  0
  7  8  2  0
  7  9  1  0
  9 10  1  0
 10 11  1  0
M  END
> <Name>
Ethyl heptanoate

> <CAS>
000106-30-9

> <VED1>
3.26

> <nHAcc>
2

> <MAXDP>
3.784

> <CIC0>
3.641

> <Log Koc Exp>
2.61

> <Log Koc Pred>
1.62

> <Hat>
0.068

> <Hat Cutoff>
0.161

> <ID Model>
174

> <Smiles>
CCCCCCC(=O)OCC

$$$$
Ethyl octanoate
  SciTegic03251110552D

 12 11  0  0  0  0            999 V2000
    0.0000    0.0000    0.0000 C   0  0
    0.0000    0.0000    0.0000 C   0  0
    0.0000    0.0000    0.0000 C   0  0
    0.0000    0.0000    0.0000 C   0  0
    0.0000    0.0000    0.0000 C   0  0
    0.0000    0.0000    0.0000 C   0  0
    0.0000    0.0000    0.0000 C   0  0
    0.0000    0.0000    0.0000 C   0  0
    0.0000    0.0000    0.0000 O   0  0
    0.0000    0.0000    0.0000 O   0  0
    0.0000    0.0000    0.0000 C   0  0
    0.0000    0.0000    0.0000 C   0  0
  1  2  1  0
  2  3  1  0
  3  4  1  0
  4  5  1  0
  5  6  1  0
  6  7  1  0
  7  8  1  0
  8  9  2  0
  8 10  1  0
 10 11  1  0
 11 12  1  0
M  END
> <Name>
Ethyl octanoate

> <CAS>
000106-32-1

> <VED1>
3.405

> <nHAcc>
2

> <MAXDP>
3.854

> <CIC0>
3.802

> <Log Koc Exp>
3.02

> <Log Koc Pred>
1.85

> <Hat>
0.069

> <Hat Cutoff>
0.161

> <ID Model>
175

> <Smiles>
CCCCCCCC(=O)OCC

$$$$
4-Bromoaniline
  SciTegic03251110552D

  8  8  0  0  0  0            999 V2000
    0.0000    0.0000    0.0000 C   0  0
    0.0000    0.0000    0.0000 C   0  0
    0.0000    0.0000    0.0000 C   0  0
    0.0000    0.0000    0.0000 C   0  0
    0.0000    0.0000    0.0000 C   0  0
    0.0000    0.0000    0.0000 C   0  0
    0.0000    0.0000    0.0000 Br  0  0
    0.0000    0.0000    0.0000 N   0  0
  1  6  1  0
  1  2  2  3
  1  8  1  0
  2  3  1  0
  3  4  2  3
  4  5  1  0
  4  7  1  0
  5  6  2  3
M  END
> <Name>
4-Bromoaniline

> <CAS>
000106-40-1

> <VED1>
2.797

> <nHAcc>
1

> <MAXDP>
1.406

> <CIC0>
2.216

> <Log Koc Exp>
1.96

> <Log Koc Pred>
2.19

> <Hat>
0.03

> <Hat Cutoff>
0.161

> <ID Model>
176

> <Smiles>
c1(ccc(cc1)Br)N

$$$$
4-Bromophenol
  SciTegic03251110552D

  8  8  0  0  0  0            999 V2000
    0.0000    0.0000    0.0000 C   0  0
    0.0000    0.0000    0.0000 C   0  0
    0.0000    0.0000    0.0000 C   0  0
    0.0000    0.0000    0.0000 C   0  0
    0.0000    0.0000    0.0000 C   0  0
    0.0000    0.0000    0.0000 C   0  0
    0.0000    0.0000    0.0000 Br  0  0
    0.0000    0.0000    0.0000 O   0  0
  1  6  1  0
  1  2  2  3
  1  8  1  0
  2  3  1  0
  3  4  2  3
  4  5  1  0
  4  7  1  0
  5  6  2  3
M  END
> <Name>
4-Bromophenol

> <CAS>
000106-41-2

> <VED1>
2.797

> <nHAcc>
1

> <MAXDP>
2.736

> <CIC0>
2.086

> <Log Koc Exp>
2.41

> <Log Koc Pred>
1.82

> <Hat>
0.033

> <Hat Cutoff>
0.161

> <ID Model>
177

> <Smiles>
c1(ccc(cc1)Br)O

$$$$
1,4-Dimethylbenzene
  SciTegic03251110552D

  8  8  0  0  0  0            999 V2000
    0.0000    0.0000    0.0000 C   0  0
    0.0000    0.0000    0.0000 C   0  0
    0.0000    0.0000    0.0000 C   0  0
    0.0000    0.0000    0.0000 C   0  0
    0.0000    0.0000    0.0000 C   0  0
    0.0000    0.0000    0.0000 C   0  0
    0.0000    0.0000    0.0000 C   0  0
    0.0000    0.0000    0.0000 C   0  0
  1  2  1  0
  2  7  1  0
  2  3  2  3
  3  4  1  0
  4  5  2  3
  5  6  1  0
  5  8  1  0
  6  7  2  3
M  END
> <Name>
1,4-Dimethylbenzene

> <CAS>
000106-42-3

> <VED1>
2.797

> <nHAcc>
0

> <MAXDP>
0.12

> <CIC0>
3.179

> <Log Koc Exp>
2.47

> <Log Koc Pred>
2.6

> <Hat>
0.081

> <Hat Cutoff>
0.161

> <ID Model>
178

> <Smiles>
Cc1ccc(cc1)C

$$$$
4-Methylphenol
  SciTegic03251110552D

  8  8  0  0  0  0            999 V2000
    0.0000    0.0000    0.0000 O   0  0
    0.0000    0.0000    0.0000 C   0  0
    0.0000    0.0000    0.0000 C   0  0
    0.0000    0.0000    0.0000 C   0  0
    0.0000    0.0000    0.0000 C   0  0
    0.0000    0.0000    0.0000 C   0  0
    0.0000    0.0000    0.0000 C   0  0
    0.0000    0.0000    0.0000 C   0  0
  1  2  1  0
  2  7  1  0
  2  3  2  3
  3  4  1  0
  4  5  2  3
  5  6  1  0
  5  8  1  0
  6  7  2  3
M  END
> <Name>
4-Methylphenol

> <CAS>
000106-44-5

> <VED1>
2.797

> <nHAcc>
1

> <MAXDP>
2.757

> <CIC0>
2.728

> <Log Koc Exp>
2.2

> <Log Koc Pred>
1.6

> <Hat>
0.036

> <Hat Cutoff>
0.161

> <ID Model>
179

> <Smiles>
Oc1ccc(cc1)C

$$$$
1,4-Dichlorobenzene
  SciTegic03251110552D

  8  8  0  0  0  0            999 V2000
    0.0000    0.0000    0.0000 C   0  0
    0.0000    0.0000    0.0000 C   0  0
    0.0000    0.0000    0.0000 C   0  0
    0.0000    0.0000    0.0000 C   0  0
    0.0000    0.0000    0.0000 C   0  0
    0.0000    0.0000    0.0000 C   0  0
    0.0000    0.0000    0.0000 Cl  0  0
    0.0000    0.0000    0.0000 Cl  0  0
  1  6  1  0
  1  2  2  3
  2  3  1  0
  3  4  2  3
  3  8  1  0
  4  5  1  0
  5  6  2  3
  6  7  1  0
M  END
> <Name>
1,4-Dichlorobenzene

> <CAS>
000106-46-7

> <VED1>
2.797

> <nHAcc>
0

> <MAXDP>
1.442

> <CIC0>
2.126

> <Log Koc Exp>
2.54

> <Log Koc Pred>
2.54

> <Hat>
0.034

> <Hat Cutoff>
0.161

> <ID Model>
180

> <Smiles>
c1cc(ccc1Cl)Cl

$$$$
4-Chloroaniline
  SciTegic03251110552D

  8  8  0  0  0  0            999 V2000
    0.0000    0.0000    0.0000 Cl  0  0
    0.0000    0.0000    0.0000 C   0  0
    0.0000    0.0000    0.0000 C   0  0
    0.0000    0.0000    0.0000 C   0  0
    0.0000    0.0000    0.0000 C   0  0
    0.0000    0.0000    0.0000 C   0  0
    0.0000    0.0000    0.0000 C   0  0
    0.0000    0.0000    0.0000 N   0  0
  1  2  1  0
  2  7  1  0
  2  3  2  3
  3  4  1  0
  4  5  2  3
  5  6  1  0
  5  8  1  0
  6  7  2  3
M  END
> <Name>
4-Chloroaniline

> <CAS>
000106-47-8

> <VED1>
2.797

> <nHAcc>
1

> <MAXDP>
1.445

> <CIC0>
2.216

> <Log Koc Exp>
1.97

> <Log Koc Pred>
2.17

> <Hat>
0.029

> <Hat Cutoff>
0.161

> <ID Model>
181

> <Smiles>
Clc1ccc(cc1)N

$$$$
4-Chlorophenol
  SciTegic03251110552D

  8  8  0  0  0  0            999 V2000
    0.0000    0.0000    0.0000 C   0  0
    0.0000    0.0000    0.0000 C   0  0
    0.0000    0.0000    0.0000 C   0  0
    0.0000    0.0000    0.0000 C   0  0
    0.0000    0.0000    0.0000 C   0  0
    0.0000    0.0000    0.0000 C   0  0
    0.0000    0.0000    0.0000 O   0  0
    0.0000    0.0000    0.0000 Cl  0  0
  1  6  1  0
  1  2  2  3
  2  3  1  0
  3  4  2  3
  3  8  1  0
  4  5  1  0
  5  6  2  3
  6  7  1  0
M  END
> <Name>
4-Chlorophenol

> <CAS>
000106-48-9

> <VED1>
2.797

> <nHAcc>
1

> <MAXDP>
2.698

> <CIC0>
2.086

> <Log Koc Exp>
1.85

> <Log Koc Pred>
1.83

> <Hat>
0.033

> <Hat Cutoff>
0.161

> <ID Model>
182

> <Smiles>
c1cc(ccc1O)Cl

$$$$
4-Methylaniline
  SciTegic03251110552D

  8  8  0  0  0  0            999 V2000
    0.0000    0.0000    0.0000 N   0  0
    0.0000    0.0000    0.0000 C   0  0
    0.0000    0.0000    0.0000 C   0  0
    0.0000    0.0000    0.0000 C   0  0
    0.0000    0.0000    0.0000 C   0  0
    0.0000    0.0000    0.0000 C   0  0
    0.0000    0.0000    0.0000 C   0  0
    0.0000    0.0000    0.0000 C   0  0
  1  2  1  0
  2  7  1  0
  2  3  2  3
  3  4  1  0
  4  5  2  3
  5  6  1  0
  5  8  1  0
  6  7  2  3
M  END
> <Name>
4-Methylaniline

> <CAS>
000106-49-0

> <VED1>
2.797

> <nHAcc>
1

> <MAXDP>
1.427

> <CIC0>
2.834

> <Log Koc Exp>
1.9

> <Log Koc Pred>
1.98

> <Hat>
0.041

> <Hat Cutoff>
0.161

> <ID Model>
183

> <Smiles>
Nc1ccc(cc1)C

$$$$
Epichlorohydrin
  SciTegic03251110552D

  6  6  0  0  0  0            999 V2000
    0.0000    0.0000    0.0000 O   0  0
    0.0000    0.0000    0.0000 C   0  0
    0.0000    0.0000    0.0000 C   0  0
    0.0000    0.0000    0.0000 H   0  0
    0.0000    0.0000    0.0000 C   0  0
    0.0000    0.0000    0.0000 Cl  0  0
  1  3  1  0
  1  2  1  0
  2  3  1  0
  3  4  1  0
  3  5  1  0
  5  6  1  0
M  END
> <Name>
Epichlorohydrin

> <CAS>
000106-89-8

> <VED1>
2.209

> <nHAcc>
1

> <MAXDP>
1.226

> <CIC0>
1.636

> <Log Koc Exp>
1

> <Log Koc Pred>
1.2

> <Hat>
0.057

> <Hat Cutoff>
0.161

> <ID Model>
184

> <Smiles>
O1C[C@@H]1CCl

$$$$
1,2-Dibromoethane
  SciTegic03251110552D

  4  3  0  0  0  0            999 V2000
    0.0000    0.0000    0.0000 Br  0  0
    0.0000    0.0000    0.0000 C   0  0
    0.0000    0.0000    0.0000 C   0  0
    0.0000    0.0000    0.0000 Br  0  0
  1  2  1  0
  2  3  1  0
  3  4  1  0
M  END
> <Name>
1,2-Dibromoethane

> <CAS>
000106-93-4

> <VED1>
1.974

> <nHAcc>
0

> <MAXDP>
0.451

> <CIC0>
1.5

> <Log Koc Exp>
1.72

> <Log Koc Pred>
1.33

> <Hat>
0.072

> <Hat Cutoff>
0.161

> <ID Model>
185

> <Smiles>
BrCCBr

$$$$
1,2-Dichloroethane
  SciTegic03251110552D

  4  3  0  0  0  0            999 V2000
    0.0000    0.0000    0.0000 C   0  0
    0.0000    0.0000    0.0000 C   0  0
    0.0000    0.0000    0.0000 Cl  0  0
    0.0000    0.0000    0.0000 Cl  0  0
  1  2  1  0
  1  4  1  0
  2  3  1  0
M  END
> <Name>
1,2-Dichloroethane

> <CAS>
000107-06-2

> <VED1>
1.974

> <nHAcc>
0

> <MAXDP>
0.943

> <CIC0>
1.5

> <Log Koc Exp>
1.54

> <Log Koc Pred>
1.17

> <Hat>
0.067

> <Hat Cutoff>
0.161

> <ID Model>
187

> <Smiles>
C(CCl)Cl

$$$$
1,3-Dimethylbenzene
  SciTegic03251110552D

  8  8  0  0  0  0            999 V2000
    0.0000    0.0000    0.0000 C   0  0
    0.0000    0.0000    0.0000 C   0  0
    0.0000    0.0000    0.0000 C   0  0
    0.0000    0.0000    0.0000 C   0  0
    0.0000    0.0000    0.0000 C   0  0
    0.0000    0.0000    0.0000 C   0  0
    0.0000    0.0000    0.0000 C   0  0
    0.0000    0.0000    0.0000 C   0  0
  1  6  1  0
  1  2  2  3
  2  3  1  0
  2  8  1  0
  3  4  2  3
  4  5  1  0
  4  7  1  0
  5  6  2  3
M  END
> <Name>
1,3-Dimethylbenzene

> <CAS>
000108-38-3

> <VED1>
2.802

> <nHAcc>
0

> <MAXDP>
0.167

> <CIC0>
3.179

> <Log Koc Exp>
2.77

> <Log Koc Pred>
2.6

> <Hat>
0.079

> <Hat Cutoff>
0.161

> <ID Model>
188

> <Smiles>
c1c(cc(cc1)C)C

$$$$
3-Chlorophenol
  SciTegic03251110552D

  8  8  0  0  0  0            999 V2000
    0.0000    0.0000    0.0000 C   0  0
    0.0000    0.0000    0.0000 C   0  0
    0.0000    0.0000    0.0000 C   0  0
    0.0000    0.0000    0.0000 C   0  0
    0.0000    0.0000    0.0000 C   0  0
    0.0000    0.0000    0.0000 C   0  0
    0.0000    0.0000    0.0000 O   0  0
    0.0000    0.0000    0.0000 Cl  0  0
  1  6  1  0
  1  2  2  3
  2  3  1  0
  2  8  1  0
  3  4  2  3
  4  5  1  0
  5  6  2  3
  6  7  1  0
M  END
> <Name>
3-Chlorophenol

> <CAS>
000108-43-0

> <VED1>
2.802

> <nHAcc>
1

> <MAXDP>
2.729

> <CIC0>
2.086

> <Log Koc Exp>
2.18

> <Log Koc Pred>
1.83

> <Hat>
0.033

> <Hat Cutoff>
0.161

> <ID Model>
190

> <Smiles>
c1c(cccc1O)Cl

$$$$
3-Methylaniline
  SciTegic03251110552D

  8  8  0  0  0  0            999 V2000
    0.0000    0.0000    0.0000 C   0  0
    0.0000    0.0000    0.0000 C   0  0
    0.0000    0.0000    0.0000 C   0  0
    0.0000    0.0000    0.0000 C   0  0
    0.0000    0.0000    0.0000 C   0  0
    0.0000    0.0000    0.0000 C   0  0
    0.0000    0.0000    0.0000 N   0  0
    0.0000    0.0000    0.0000 C   0  0
  1  6  1  0
  1  2  2  3
  1  8  1  0
  2  3  1  0
  3  4  2  3
  3  7  1  0
  4  5  1  0
  5  6  2  3
M  END
> <Name>
3-Methylaniline

> <CAS>
000108-44-1

> <VED1>
2.802

> <nHAcc>
1

> <MAXDP>
1.459

> <CIC0>
2.834

> <Log Koc Exp>
1.65

> <Log Koc Pred>
1.98

> <Hat>
0.04

> <Hat Cutoff>
0.161

> <ID Model>
191

> <Smiles>
c1(cc(ccc1)N)C

$$$$
3-Hydroxyphenol
  SciTegic03251110552D

  8  8  0  0  0  0            999 V2000
    0.0000    0.0000    0.0000 C   0  0
    0.0000    0.0000    0.0000 C   0  0
    0.0000    0.0000    0.0000 C   0  0
    0.0000    0.0000    0.0000 C   0  0
    0.0000    0.0000    0.0000 C   0  0
    0.0000    0.0000    0.0000 C   0  0
    0.0000    0.0000    0.0000 O   0  0
    0.0000    0.0000    0.0000 O   0  0
  1  6  1  0
  1  2  2  3
  1  8  1  0
  2  3  1  0
  3  4  2  3
  3  7  1  0
  4  5  1  0
  5  6  2  3
M  END
> <Name>
3-Hydroxyphenol

> <CAS>
000108-46-3

> <VED1>
2.802

> <nHAcc>
2

> <MAXDP>
2.653

> <CIC0>
2.359

> <Log Koc Exp>
1.01

> <Log Koc Pred>
1.43

> <Hat>
0.028

> <Hat Cutoff>
0.161

> <ID Model>
192

> <Smiles>
c1(cc(ccc1)O)O

$$$$
Bis(2-chloroisopropyl)ether
  SciTegic03251110552D

 11 10  0  0  0  0            999 V2000
    0.0000    0.0000    0.0000 C   0  0
    0.0000    0.0000    0.0000 H   0  0
    0.0000    0.0000    0.0000 O   0  0
    0.0000    0.0000    0.0000 C   0  0
    0.0000    0.0000    0.0000 H   0  0
    0.0000    0.0000    0.0000 C   0  0
    0.0000    0.0000    0.0000 Cl  0  0
    0.0000    0.0000    0.0000 C   0  0
    0.0000    0.0000    0.0000 C   0  0
    0.0000    0.0000    0.0000 Cl  0  0
    0.0000    0.0000    0.0000 C   0  0
  1  2  1  0
  1  3  1  0
  1  9  1  0
  1 11  1  0
  3  4  1  0
  4  5  1  0
  4  6  1  0
  4  8  1  0
  6  7  1  0
  9 10  1  0
M  END
> <Name>
Bis(2-chloroisopropyl)ether

> <CAS>
000108-60-1

> <VED1>
2.951

> <nHAcc>
1

> <MAXDP>
1.785

> <CIC0>
2.882

> <Log Koc Exp>
1.73

> <Log Koc Pred>
2.17

> <Hat>
0.03

> <Hat Cutoff>
0.161

> <ID Model>
193

> <Smiles>
[C@H](O[C@H](CCl)C)(CCl)C

$$$$
1,3,5-Trimethylbenzene
  SciTegic03251110552D

  9  9  0  0  0  0            999 V2000
    0.0000    0.0000    0.0000 C   0  0
    0.0000    0.0000    0.0000 C   0  0
    0.0000    0.0000    0.0000 C   0  0
    0.0000    0.0000    0.0000 C   0  0
    0.0000    0.0000    0.0000 C   0  0
    0.0000    0.0000    0.0000 C   0  0
    0.0000    0.0000    0.0000 C   0  0
    0.0000    0.0000    0.0000 C   0  0
    0.0000    0.0000    0.0000 C   0  0
  1  6  1  0
  1  2  2  3
  2  3  1  0
  2  9  1  0
  3  4  2  3
  4  5  1  0
  4  8  1  0
  5  6  2  3
  6  7  1  0
M  END
> <Name>
1,3,5-Trimethylbenzene

> <CAS>
000108-67-8

> <VED1>
2.967

> <nHAcc>
0

> <MAXDP>
0.188

> <CIC0>
3.407

> <Log Koc Exp>
2.82

> <Log Koc Pred>
2.86

> <Hat>
0.085

> <Hat Cutoff>
0.161

> <ID Model>
194

> <Smiles>
c1c(cc(cc1C)C)C

$$$$
3,5-Dimethylphenol
  SciTegic03251110552D

  9  9  0  0  0  0            999 V2000
    0.0000    0.0000    0.0000 C   0  0
    0.0000    0.0000    0.0000 C   0  0
    0.0000    0.0000    0.0000 C   0  0
    0.0000    0.0000    0.0000 C   0  0
    0.0000    0.0000    0.0000 C   0  0
    0.0000    0.0000    0.0000 C   0  0
    0.0000    0.0000    0.0000 C   0  0
    0.0000    0.0000    0.0000 O   0  0
    0.0000    0.0000    0.0000 C   0  0
  1  6  1  0
  1  2  2  3
  1  9  1  0
  2  3  1  0
  3  4  2  3
  3  8  1  0
  4  5  1  0
  5  6  2  3
  5  7  1  0
M  END
> <Name>
3,5-Dimethylphenol

> <CAS>
000108-68-9

> <VED1>
2.967

> <nHAcc>
1

> <MAXDP>
2.994

> <CIC0>
3.012

> <Log Koc Exp>
2.83

> <Log Koc Pred>
1.79

> <Hat>
0.04

> <Hat Cutoff>
0.161

> <ID Model>
195

> <Smiles>
c1(cc(cc(c1)C)O)C

$$$$
1,3,5-Trichlorobenzene
  SciTegic03251110552D

  9  9  0  0  0  0            999 V2000
    0.0000    0.0000    0.0000 C   0  0
    0.0000    0.0000    0.0000 C   0  0
    0.0000    0.0000    0.0000 C   0  0
    0.0000    0.0000    0.0000 C   0  0
    0.0000    0.0000    0.0000 C   0  0
    0.0000    0.0000    0.0000 C   0  0
    0.0000    0.0000    0.0000 Cl  0  0
    0.0000    0.0000    0.0000 Cl  0  0
    0.0000    0.0000    0.0000 Cl  0  0
  1  6  1  0
  1  2  2  3
  1  9  1  0
  2  3  1  0
  3  4  2  3
  3  8  1  0
  4  5  1  0
  5  6  2  3
  5  7  1  0
M  END
> <Name>
1,3,5-Trichlorobenzene

> <CAS>
000108-70-3

> <VED1>
2.967

> <nHAcc>
0

> <MAXDP>
1.47

> <CIC0>
2.085

> <Log Koc Exp>
2.85

> <Log Koc Pred>
2.9

> <Hat>
0.039

> <Hat Cutoff>
0.161

> <ID Model>
196

> <Smiles>
c1(cc(cc(c1)Cl)Cl)Cl

$$$$
Bromobenzene
  SciTegic03251110552D

  7  7  0  0  0  0            999 V2000
    0.0000    0.0000    0.0000 Br  0  0
    0.0000    0.0000    0.0000 C   0  0
    0.0000    0.0000    0.0000 C   0  0
    0.0000    0.0000    0.0000 C   0  0
    0.0000    0.0000    0.0000 C   0  0
    0.0000    0.0000    0.0000 C   0  0
    0.0000    0.0000    0.0000 C   0  0
  1  2  1  0
  2  7  1  0
  2  3  2  3
  3  4  1  0
  4  5  2  3
  5  6  1  0
  6  7  2  3
M  END
> <Name>
Bromobenzene

> <CAS>
000108-86-1

> <VED1>
2.629

> <nHAcc>
0

> <MAXDP>
0.561

> <CIC0>
2.26

> <Log Koc Exp>
2.34

> <Log Koc Pred>
2.42

> <Hat>
0.043

> <Hat Cutoff>
0.161

> <ID Model>
197

> <Smiles>
Brc1ccccc1

$$$$
Toluene
  SciTegic03251110552D

  7  7  0  0  0  0            999 V2000
    0.0000    0.0000    0.0000 C   0  0
    0.0000    0.0000    0.0000 C   0  0
    0.0000    0.0000    0.0000 C   0  0
    0.0000    0.0000    0.0000 C   0  0
    0.0000    0.0000    0.0000 C   0  0
    0.0000    0.0000    0.0000 C   0  0
    0.0000    0.0000    0.0000 C   0  0
  1  6  1  0
  1  2  2  3
  2  3  1  0
  3  4  2  3
  4  5  1  0
  5  6  2  3
  6  7  1  0
M  END
> <Name>
Toluene

> <CAS>
000108-88-3

> <VED1>
2.629

> <nHAcc>
0

> <MAXDP>
0.083

> <CIC0>
2.91

> <Log Koc Exp>
2.2

> <Log Koc Pred>
2.35

> <Hat>
0.076

> <Hat Cutoff>
0.161

> <ID Model>
198

> <Smiles>
c1ccccc1C

$$$$
Chlorobenzene
  SciTegic03251110552D

  7  7  0  0  0  0            999 V2000
    0.0000    0.0000    0.0000 C   0  0
    0.0000    0.0000    0.0000 C   0  0
    0.0000    0.0000    0.0000 C   0  0
    0.0000    0.0000    0.0000 C   0  0
    0.0000    0.0000    0.0000 C   0  0
    0.0000    0.0000    0.0000 C   0  0
    0.0000    0.0000    0.0000 Cl  0  0
  1  6  1  0
  1  2  2  3
  2  3  1  0
  3  4  2  3
  3  7  1  0
  4  5  1  0
  5  6  2  3
M  END
> <Name>
Chlorobenzene

> <CAS>
000108-90-7

> <VED1>
2.629

> <nHAcc>
0

> <MAXDP>
1.429

> <CIC0>
2.26

> <Log Koc Exp>
2.38

> <Log Koc Pred>
2.15

> <Hat>
0.034

> <Hat Cutoff>
0.161

> <ID Model>
199

> <Smiles>
c1cc(ccc1)Cl

$$$$
Phenol
  SciTegic03251110552D

  7  7  0  0  0  0            999 V2000
    0.0000    0.0000    0.0000 C   0  0
    0.0000    0.0000    0.0000 C   0  0
    0.0000    0.0000    0.0000 C   0  0
    0.0000    0.0000    0.0000 C   0  0
    0.0000    0.0000    0.0000 C   0  0
    0.0000    0.0000    0.0000 C   0  0
    0.0000    0.0000    0.0000 O   0  0
  1  6  1  0
  1  2  2  3
  2  3  1  0
  3  4  2  3
  4  5  1  0
  5  6  2  3
  6  7  1  0
M  END
> <Name>
Phenol

> <CAS>
000108-95-2

> <VED1>
2.629

> <nHAcc>
1

> <MAXDP>
2.632

> <CIC0>
2.386

> <Log Koc Exp>
1.43

> <Log Koc Pred>
1.4

> <Hat>
0.037

> <Hat Cutoff>
0.161

> <ID Model>
200

> <Smiles>
c1ccccc1O

$$$$
n-Butylamine
  SciTegic03251110552D

  5  4  0  0  0  0            999 V2000
    0.0000    0.0000    0.0000 N   0  0
    0.0000    0.0000    0.0000 C   0  0
    0.0000    0.0000    0.0000 C   0  0
    0.0000    0.0000    0.0000 C   0  0
    0.0000    0.0000    0.0000 C   0  0
  1  2  1  0
  2  3  1  0
  3  4  1  0
  4  5  1  0
M  END
> <Name>
n-Butylamine

> <CAS>
000109-73-9

> <VED1>
2.204

> <nHAcc>
1

> <MAXDP>
1.139

> <CIC0>
2.878

> <Log Koc Exp>
1.88

> <Log Koc Pred>
0.81

> <Hat>
0.114

> <Hat Cutoff>
0.161

> <ID Model>
201

> <Smiles>
NCCCC

$$$$
Bis(2-chloroethyl)ether
  SciTegic03251110552D

  7  6  0  0  0  0            999 V2000
    0.0000    0.0000    0.0000 Cl  0  0
    0.0000    0.0000    0.0000 C   0  0
    0.0000    0.0000    0.0000 C   0  0
    0.0000    0.0000    0.0000 O   0  0
    0.0000    0.0000    0.0000 C   0  0
    0.0000    0.0000    0.0000 C   0  0
    0.0000    0.0000    0.0000 Cl  0  0
  1  2  1  0
  2  3  1  0
  3  4  1  0
  4  5  1  0
  5  6  1  0
  6  7  1  0
M  END
> <Name>
Bis(2-chloroethyl)ether

> <CAS>
000111-44-4

> <VED1>
2.604

> <nHAcc>
1

> <MAXDP>
1.368

> <CIC0>
2.267

> <Log Koc Exp>
1.52

> <Log Koc Pred>
1.78

> <Hat>
0.036

> <Hat Cutoff>
0.161

> <ID Model>
203

> <Smiles>
ClCCOCCCl

$$$$
1-Heptanol
  SciTegic03251110552D

  8  7  0  0  0  0            999 V2000
    0.0000    0.0000    0.0000 C   0  0
    0.0000    0.0000    0.0000 C   0  0
    0.0000    0.0000    0.0000 C   0  0
    0.0000    0.0000    0.0000 C   0  0
    0.0000    0.0000    0.0000 C   0  0
    0.0000    0.0000    0.0000 C   0  0
    0.0000    0.0000    0.0000 C   0  0
    0.0000    0.0000    0.0000 O   0  0
  1  2  1  0
  2  3  1  0
  3  4  1  0
  4  5  1  0
  5  6  1  0
  6  7  1  0
  7  8  1  0
M  END
> <Name>
1-Heptanol

> <CAS>
000111-70-6

> <VED1>
2.782

> <nHAcc>
1

> <MAXDP>
2.366

> <CIC0>
3.485

> <Log Koc Exp>
1.14

> <Log Koc Pred>
1.44

> <Hat>
0.089

> <Hat Cutoff>
0.161

> <ID Model>
204

> <Smiles>
CCCCCCCO

$$$$
1-Octanol
  SciTegic03251110552D

  9  8  0  0  0  0            999 V2000
    0.0000    0.0000    0.0000 C   0  0
    0.0000    0.0000    0.0000 C   0  0
    0.0000    0.0000    0.0000 C   0  0
    0.0000    0.0000    0.0000 C   0  0
    0.0000    0.0000    0.0000 C   0  0
    0.0000    0.0000    0.0000 C   0  0
    0.0000    0.0000    0.0000 C   0  0
    0.0000    0.0000    0.0000 C   0  0
    0.0000    0.0000    0.0000 O   0  0
  1  2  1  0
  2  3  1  0
  3  4  1  0
  4  5  1  0
  5  6  1  0
  6  7  1  0
  7  8  1  0
  8  9  1  0
M  END
> <Name>
1-Octanol

> <CAS>
000111-87-5

> <VED1>
2.951

> <nHAcc>
1

> <MAXDP>
2.423

> <CIC0>
3.669

> <Log Koc Exp>
1.56

> <Log Koc Pred>
1.72

> <Hat>
0.088

> <Hat Cutoff>
0.161

> <ID Model>
205

> <Smiles>
CCCCCCCCO

$$$$
1-Dodecanol
  SciTegic03251110552D

 13 12  0  0  0  0            999 V2000
    0.0000    0.0000    0.0000 C   0  0
    0.0000    0.0000    0.0000 C   0  0
    0.0000    0.0000    0.0000 C   0  0
    0.0000    0.0000    0.0000 C   0  0
    0.0000    0.0000    0.0000 C   0  0
    0.0000    0.0000    0.0000 C   0  0
    0.0000    0.0000    0.0000 C   0  0
    0.0000    0.0000    0.0000 C   0  0
    0.0000    0.0000    0.0000 C   0  0
    0.0000    0.0000    0.0000 C   0  0
    0.0000    0.0000    0.0000 C   0  0
    0.0000    0.0000    0.0000 C   0  0
    0.0000    0.0000    0.0000 O   0  0
  1  2  1  0
  1 13  1  0
  2  3  1  0
  3  4  1  0
  4  5  1  0
  5  6  1  0
  6  7  1  0
  7  8  1  0
  8  9  1  0
  9 10  1  0
 10 11  1  0
 11 12  1  0
M  END
> <Name>
1-Dodecanol

> <CAS>
000112-53-8

> <VED1>
3.544

> <nHAcc>
1

> <MAXDP>
2.566

> <CIC0>
4.237

> <Log Koc Exp>
3.52

> <Log Koc Pred>
2.73

> <Hat>
0.089

> <Hat Cutoff>
0.161

> <ID Model>
207

> <Smiles>
C(CCCCCCCCCCC)O

$$$$
2-Chlorophenylurea
  SciTegic03251110552D

 11 11  0  0  0  0            999 V2000
    0.0000    0.0000    0.0000 N   0  0
    0.0000    0.0000    0.0000 C   0  0
    0.0000    0.0000    0.0000 O   0  0
    0.0000    0.0000    0.0000 N   0  0
    0.0000    0.0000    0.0000 C   0  0
    0.0000    0.0000    0.0000 C   0  0
    0.0000    0.0000    0.0000 C   0  0
    0.0000    0.0000    0.0000 C   0  0
    0.0000    0.0000    0.0000 C   0  0
    0.0000    0.0000    0.0000 C   0  0
    0.0000    0.0000    0.0000 Cl  0  0
  1  2  1  0
  2  3  2  0
  2  4  1  0
  4  5  1  0
  5 10  1  0
  5  6  2  3
  6  7  1  0
  7  8  2  3
  8  9  1  0
  9 10  2  3
 10 11  1  0
M  END
> <Name>
2-Chlorophenylurea

> <CAS>
000114-38-5

> <VED1>
3.271

> <nHAcc>
3

> <MAXDP>
3.373

> <CIC0>
2.295

> <Log Koc Exp>
1.61

> <Log Koc Pred>
1.87

> <Hat>
0.022

> <Hat Cutoff>
0.161

> <ID Model>
209

> <Smiles>
NC(=O)Nc1ccccc1Cl

$$$$
Chlorendic acid
  SciTegic03251110552D

 21 22  0  0  0  0            999 V2000
    0.0000    0.0000    0.0000 C   0  0
    0.0000    0.0000    0.0000 C   0  0
    0.0000    0.0000    0.0000 C   0  0
    0.0000    0.0000    0.0000 C   0  0
    0.0000    0.0000    0.0000 H   0  0
    0.0000    0.0000    0.0000 C   0  0
    0.0000    0.0000    0.0000 H   0  0
    0.0000    0.0000    0.0000 C   0  0
    0.0000    0.0000    0.0000 C   0  0
    0.0000    0.0000    0.0000 Cl  0  0
    0.0000    0.0000    0.0000 Cl  0  0
    0.0000    0.0000    0.0000 Cl  0  0
    0.0000    0.0000    0.0000 C   0  0
    0.0000    0.0000    0.0000 O   0  0
    0.0000    0.0000    0.0000 O   0  0
    0.0000    0.0000    0.0000 C   0  0
    0.0000    0.0000    0.0000 O   0  0
    0.0000    0.0000    0.0000 O   0  0
    0.0000    0.0000    0.0000 Cl  0  0
    0.0000    0.0000    0.0000 Cl  0  0
    0.0000    0.0000    0.0000 Cl  0  0
  1  8  1  0
  1  2  2  3
  1 21  1  0
  2  3  1  0
  2 20  1  0
  3  9  1  0
  3  4  1  0
  3 19  1  0
  4  5  1  0
  4  6  1  0
  4 16  1  0
  6  7  1  0
  6  8  1  0
  6 13  1  0
  8  9  1  0
  8 12  1  0
  9 10  1  0
  9 11  1  0
 13 14  2  0
 13 15  1  0
 16 17  2  0
 16 18  1  0
M  END
> <Name>
Chlorendic acid

> <CAS>
000115-28-6

> <VED1>
4.289

> <nHAcc>
4

> <MAXDP>
4.346

> <CIC0>
2.61

> <Log Koc Exp>
2.79

> <Log Koc Pred>
3.27

> <Hat>
0.051

> <Hat Cutoff>
0.161

> <ID Model>
210

> <Smiles>
C1(=C([C@]2([C@H]([C@H]([C@@]1(C2(Cl)Cl)Cl)C(=O)O)C(=O)O)Cl)Cl)Cl

$$$$
Endosulfan
  SciTegic03251110552D

 21 23  0  0  0  0            999 V2000
    0.0000    0.0000    0.0000 S   0  0
    0.0000    0.0000    0.0000 O   0  0
    0.0000    0.0000    0.0000 O   0  0
    0.0000    0.0000    0.0000 C   0  0
    0.0000    0.0000    0.0000 C   0  0
    0.0000    0.0000    0.0000 H   0  0
    0.0000    0.0000    0.0000 C   0  0
    0.0000    0.0000    0.0000 C   0  0
    0.0000    0.0000    0.0000 C   0  0
    0.0000    0.0000    0.0000 Cl  0  0
    0.0000    0.0000    0.0000 C   0  0
    0.0000    0.0000    0.0000 C   0  0
    0.0000    0.0000    0.0000 H   0  0
    0.0000    0.0000    0.0000 C   0  0
    0.0000    0.0000    0.0000 O   0  0
    0.0000    0.0000    0.0000 C   0  0
    0.0000    0.0000    0.0000 Cl  0  0
    0.0000    0.0000    0.0000 Cl  0  0
    0.0000    0.0000    0.0000 Cl  0  0
    0.0000    0.0000    0.0000 Cl  0  0
    0.0000    0.0000    0.0000 Cl  0  0
  1 15  1  0
  1  2  2  0
  1  3  1  0
  3  4  1  0
  4  5  1  0
  5  6  1  0
  5 12  1  0
  5  7  1  0
  7 16  1  0
  7  8  1  0
  7 21  1  0
  8  9  2  3
  8 20  1  0
  9 10  1  0
  9 11  1  0
 11 12  1  0
 11 16  1  0
 11 19  1  0
 12 13  1  0
 12 14  1  0
 14 15  1  0
 16 17  1  0
 16 18  1  0
M  END
> <Name>
Endosulfan

> <CAS>
000115-29-7

> <VED1>
4.294

> <nHAcc>
3

> <MAXDP>
4.316

> <CIC0>
2.572

> <Log Koc Exp>
4.13

> <Log Koc Pred>
3.64

> <Hat>
0.071

> <Hat Cutoff>
0.161

> <ID Model>
211

> <Smiles>
[S@@]1(=O)OC[C@H]2[C@@]3(C(=C(Cl)[C@]([C@H]2CO1)(C3(Cl)Cl)Cl)Cl)Cl

$$$$
Dicofol
  SciTegic03251110552D

 20 21  0  0  0  0            999 V2000
    0.0000    0.0000    0.0000 Cl  0  0
    0.0000    0.0000    0.0000 C   0  0
    0.0000    0.0000    0.0000 C   0  0
    0.0000    0.0000    0.0000 C   0  0
    0.0000    0.0000    0.0000 C   0  0
    0.0000    0.0000    0.0000 C   0  0
    0.0000    0.0000    0.0000 C   0  0
    0.0000    0.0000    0.0000 C   0  0
    0.0000    0.0000    0.0000 C   0  0
    0.0000    0.0000    0.0000 C   0  0
    0.0000    0.0000    0.0000 C   0  0
    0.0000    0.0000    0.0000 C   0  0
    0.0000    0.0000    0.0000 C   0  0
    0.0000    0.0000    0.0000 C   0  0
    0.0000    0.0000    0.0000 Cl  0  0
    0.0000    0.0000    0.0000 O   0  0
    0.0000    0.0000    0.0000 C   0  0
    0.0000    0.0000    0.0000 Cl  0  0
    0.0000    0.0000    0.0000 Cl  0  0
    0.0000    0.0000    0.0000 Cl  0  0
  1  2  1  0
  2  7  1  0
  2  3  2  3
  3  4  1  0
  4  5  2  3
  5  6  1  0
  5  8  1  0
  6  7  2  3
  8  9  1  0
  8 16  1  0
  8 17  1  0
  9 14  1  0
  9 10  2  3
 10 11  1  0
 11 12  2  3
 12 13  1  0
 12 15  1  0
 13 14  2  3
 17 18  1  0
 17 19  1  0
 17 20  1  0
M  END
> <Name>
Dicofol

> <CAS>
000115-32-2

> <VED1>
4.396

> <nHAcc>
1

> <MAXDP>
4.99

> <CIC0>
3.222

> <Log Koc Exp>
3.7

> <Log Koc Pred>
4.11

> <Hat>
0.117

> <Hat Cutoff>
0.161

> <ID Model>
212

> <Smiles>
Clc1ccc(cc1)[C@@](c1ccc(cc1)Cl)(O)C(Cl)(Cl)Cl

$$$$
Fensulfothion
  SciTegic03251110552D

 18 18  0  0  0  0            999 V2000
    0.0000    0.0000    0.0000 C   0  0
    0.0000    0.0000    0.0000 C   0  0
    0.0000    0.0000    0.0000 O   0  0
    0.0000    0.0000    0.0000 P   0  0
    0.0000    0.0000    0.0000 S   0  0
    0.0000    0.0000    0.0000 O   0  0
    0.0000    0.0000    0.0000 C   0  0
    0.0000    0.0000    0.0000 C   0  0
    0.0000    0.0000    0.0000 O   0  0
    0.0000    0.0000    0.0000 C   0  0
    0.0000    0.0000    0.0000 C   0  0
    0.0000    0.0000    0.0000 C   0  0
    0.0000    0.0000    0.0000 C   0  0
    0.0000    0.0000    0.0000 C   0  0
    0.0000    0.0000    0.0000 C   0  0
    0.0000    0.0000    0.0000 S   0  0
    0.0000    0.0000    0.0000 O   0  0
    0.0000    0.0000    0.0000 C   0  0
  1 15  1  0
  1  2  2  3
  2  3  1  0
  2 12  1  0
  3  4  1  0
  4  5  2  0
  4  6  1  0
  4  9  1  0
  6  7  1  0
  7  8  1  0
  9 10  1  0
 10 11  1  0
 12 13  2  3
 13 14  1  0
 14 15  2  3
 14 16  1  0
 16 17  2  0
 16 18  1  0
M  END
> <Name>
Fensulfothion

> <CAS>
000115-90-2

> <VED1>
4.168

> <nHAcc>
4

> <MAXDP>
4.254

> <CIC0>
3.358

> <Log Koc Exp>
2.52

> <Log Koc Pred>
2.8

> <Hat>
0.017

> <Hat Cutoff>
0.161

> <ID Model>
213

> <Smiles>
c1c(OP(=S)(OCC)OCC)ccc(c1)[S@](=O)C

$$$$
Aldicarb
  SciTegic03251110552D

 12 11  0  0  0  0            999 V2000
    0.0000    0.0000    0.0000 C   0  0
    0.0000    0.0000    0.0000 S   0  0
    0.0000    0.0000    0.0000 C   0  0
    0.0000    0.0000    0.0000 C   0  0
    0.0000    0.0000    0.0000 C   0  0
    0.0000    0.0000    0.0000 C   0  0
    0.0000    0.0000    0.0000 N   0  0
    0.0000    0.0000    0.0000 O   0  0
    0.0000    0.0000    0.0000 C   0  0
    0.0000    0.0000    0.0000 O   0  0
    0.0000    0.0000    0.0000 N   0  0
    0.0000    0.0000    0.0000 C   0  0
  1  2  1  0
  2  3  1  0
  3  4  1  0
  3  5  1  0
  3  6  1  0
  6  7  2  3
  7  8  1  0
  8  9  1  0
  9 10  2  0
  9 11  1  0
 11 12  1  0
M  END
> <Name>
Aldicarb

> <CAS>
000116-06-3

> <VED1>
3.413

> <nHAcc>
4

> <MAXDP>
3.532

> <CIC0>
2.96

> <Log Koc Exp>
1.57

> <Log Koc Pred>
1.57

> <Hat>
0.026

> <Hat Cutoff>
0.161

> <ID Model>
214

> <Smiles>
CSC(C)(C)C=NOC(=O)NC

$$$$
2,3,5,6-Tetrachloronitrobenzene
  SciTegic03251110552D

 13 13  0  0  0  0            999 V2000
    0.0000    0.0000    0.0000 O   0  0
    0.0000    0.0000    0.0000 N   0  0
    0.0000    0.0000    0.0000 C   0  0
    0.0000    0.0000    0.0000 C   0  0
    0.0000    0.0000    0.0000 C   0  0
    0.0000    0.0000    0.0000 C   0  0
    0.0000    0.0000    0.0000 C   0  0
    0.0000    0.0000    0.0000 C   0  0
    0.0000    0.0000    0.0000 Cl  0  0
    0.0000    0.0000    0.0000 Cl  0  0
    0.0000    0.0000    0.0000 Cl  0  0
    0.0000    0.0000    0.0000 Cl  0  0
    0.0000    0.0000    0.0000 O   0  0
  1  2  1  0
  2  3  1  0
  2 13  1  0
  3  8  1  0
  3  4  2  3
  4  5  1  0
  4 12  1  0
  5  6  2  3
  5 11  1  0
  6  7  1  0
  7  8  2  3
  7 10  1  0
  8  9  1  0
M  END
> <Name>
2,3,5,6-Tetrachloronitrobenzene

> <CAS>
000117-18-0

> <VED1>
3.556

> <nHAcc>
2

> <MAXDP>
3.466

> <CIC0>
1.822

> <Log Koc Exp>
4.05

> <Log Koc Pred>
2.94

> <Hat>
0.077

> <Hat Cutoff>
0.161

> <ID Model>
215

> <Smiles>
ON(c1c(c(cc(c1Cl)Cl)Cl)Cl)O

$$$$
bis(n-octyl) Phthalate
  SciTegic03251110552D

 28 28  0  0  0  0            999 V2000
    0.0000    0.0000    0.0000 C   0  0
    0.0000    0.0000    0.0000 O   0  0
    0.0000    0.0000    0.0000 C   0  0
    0.0000    0.0000    0.0000 C   0  0
    0.0000    0.0000    0.0000 C   0  0
    0.0000    0.0000    0.0000 C   0  0
    0.0000    0.0000    0.0000 C   0  0
    0.0000    0.0000    0.0000 C   0  0
    0.0000    0.0000    0.0000 C   0  0
    0.0000    0.0000    0.0000 O   0  0
    0.0000    0.0000    0.0000 O   0  0
    0.0000    0.0000    0.0000 C   0  0
    0.0000    0.0000    0.0000 C   0  0
    0.0000    0.0000    0.0000 C   0  0
    0.0000    0.0000    0.0000 C   0  0
    0.0000    0.0000    0.0000 C   0  0
    0.0000    0.0000    0.0000 C   0  0
    0.0000    0.0000    0.0000 C   0  0
    0.0000    0.0000    0.0000 C   0  0
    0.0000    0.0000    0.0000 O   0  0
    0.0000    0.0000    0.0000 C   0  0
    0.0000    0.0000    0.0000 C   0  0
    0.0000    0.0000    0.0000 C   0  0
    0.0000    0.0000    0.0000 C   0  0
    0.0000    0.0000    0.0000 C   0  0
    0.0000    0.0000    0.0000 C   0  0
    0.0000    0.0000    0.0000 C   0  0
    0.0000    0.0000    0.0000 C   0  0
  1  2  2  0
  1  3  1  0
  1 20  1  0
  3  8  1  0
  3  4  2  3
  4  5  1  0
  5  6  2  3
  6  7  1  0
  7  8  2  3
  8  9  1  0
  9 10  2  0
  9 11  1  0
 11 12  1  0
 12 13  1  0
 13 14  1  0
 14 15  1  0
 15 16  1  0
 16 17  1  0
 17 18  1  0
 18 19  1  0
 20 21  1  0
 21 22  1  0
 22 23  1  0
 23 24  1  0
 24 25  1  0
 25 26  1  0
 26 27  1  0
 27 28  1  0
M  END
> <Name>
bis(n-octyl) Phthalate

> <CAS>
000117-84-0

> <VED1>
5.174

> <nHAcc>
4

> <MAXDP>
5.352

> <CIC0>
4.81

> <Log Koc Exp>
4.38

> <Log Koc Pred>
4.09

> <Hat>
0.084

> <Hat Cutoff>
0.161

> <ID Model>
217

> <Smiles>
C(=O)(c1ccccc1C(=O)OCCCCCCCC)OCCCCCCCC

$$$$
Hexachlorobenzene
  SciTegic03251110552D

 12 12  0  0  0  0            999 V2000
    0.0000    0.0000    0.0000 C   0  0
    0.0000    0.0000    0.0000 C   0  0
    0.0000    0.0000    0.0000 C   0  0
    0.0000    0.0000    0.0000 C   0  0
    0.0000    0.0000    0.0000 C   0  0
    0.0000    0.0000    0.0000 C   0  0
    0.0000    0.0000    0.0000 Cl  0  0
    0.0000    0.0000    0.0000 Cl  0  0
    0.0000    0.0000    0.0000 Cl  0  0
    0.0000    0.0000    0.0000 Cl  0  0
    0.0000    0.0000    0.0000 Cl  0  0
    0.0000    0.0000    0.0000 Cl  0  0
  1  6  1  0
  1  2  2  3
  1 12  1  0
  2  3  1  0
  2 11  1  0
  3  4  2  3
  3 10  1  0
  4  5  1  0
  4  9  1  0
  5  6  2  3
  5  8  1  0
  6  7  1  0
M  END
> <Name>
Hexachlorobenzene

> <CAS>
000118-74-1

> <VED1>
3.419

> <nHAcc>
0

> <MAXDP>
1.558

> <CIC0>
2.585

> <Log Koc Exp>
3.79

> <Log Koc Pred>
3.66

> <Hat>
0.038

> <Hat Cutoff>
0.161

> <ID Model>
218

> <Smiles>
c1(c(c(c(c(c1Cl)Cl)Cl)Cl)Cl)Cl

$$$$
Chloranil
  SciTegic03251110552D

 12 12  0  0  0  0            999 V2000
    0.0000    0.0000    0.0000 C   0  0
    0.0000    0.0000    0.0000 C   0  0
    0.0000    0.0000    0.0000 C   0  0
    0.0000    0.0000    0.0000 O   0  0
    0.0000    0.0000    0.0000 C   0  0
    0.0000    0.0000    0.0000 C   0  0
    0.0000    0.0000    0.0000 C   0  0
    0.0000    0.0000    0.0000 O   0  0
    0.0000    0.0000    0.0000 Cl  0  0
    0.0000    0.0000    0.0000 Cl  0  0
    0.0000    0.0000    0.0000 Cl  0  0
    0.0000    0.0000    0.0000 Cl  0  0
  1  7  1  0
  1  2  2  3
  1 12  1  0
  2  3  1  0
  2 11  1  0
  3  4  2  0
  3  5  1  0
  5  6  2  3
  5 10  1  0
  6  7  1  0
  6  9  1  0
  7  8  2  0
M  END
> <Name>
Chloranil

> <CAS>
000118-75-2

> <VED1>
3.419

> <nHAcc>
2

> <MAXDP>
3.991

> <CIC0>
2.126

> <Log Koc Exp>
2.32

> <Log Koc Pred>
2.39

> <Hat>
0.052

> <Hat Cutoff>
0.161

> <ID Model>
219

> <Smiles>
C1(=C(C(=O)C(=C(C1=O)Cl)Cl)Cl)Cl

$$$$
2,4,6-Trinitrotoluene
  SciTegic03251110552D

 16 16  0  0  0  0            999 V2000
    0.0000    0.0000    0.0000 C   0  0
    0.0000    0.0000    0.0000 C   0  0
    0.0000    0.0000    0.0000 C   0  0
    0.0000    0.0000    0.0000 C   0  0
    0.0000    0.0000    0.0000 C   0  0
    0.0000    0.0000    0.0000 C   0  0
    0.0000    0.0000    0.0000 N   0  0
    0.0000    0.0000    0.0000 O   0  0
    0.0000    0.0000    0.0000 O   0  0
    0.0000    0.0000    0.0000 C   0  0
    0.0000    0.0000    0.0000 N   0  0
    0.0000    0.0000    0.0000 O   0  0
    0.0000    0.0000    0.0000 O   0  0
    0.0000    0.0000    0.0000 N   0  0
    0.0000    0.0000    0.0000 O   0  0
    0.0000    0.0000    0.0000 O   0  0
  1  6  1  0
  1  2  2  3
  1 14  1  0
  2  3  1  0
  3  4  2  3
  3 11  1  0
  4  5  1  0
  4 10  1  0
  5  6  2  3
  5  7  1  0
  7  8  1  0
  7  9  1  0
 11 12  1  0
 11 13  1  0
 14 15  1  0
 14 16  1  0
M  END
> <Name>
2,4,6-Trinitrotoluene

> <CAS>
000118-96-7

> <VED1>
3.937

> <nHAcc>
6

> <MAXDP>
3.532

> <CIC0>
2.454

> <Log Koc Exp>
2.72

> <Log Koc Pred>
2.16

> <Hat>
0.055

> <Hat Cutoff>
0.161

> <ID Model>
220

> <Smiles>
c1(cc(c(c(c1)N(O)O)C)N(O)O)N(O)O

$$$$
2,2'-Biquinoline
  SciTegic03251110552D

 20 23  0  0  0  0            999 V2000
    0.0000    0.0000    0.0000 C   0  0
    0.0000    0.0000    0.0000 C   0  0
    0.0000    0.0000    0.0000 C   0  0
    0.0000    0.0000    0.0000 C   0  0
    0.0000    0.0000    0.0000 C   0  0
    0.0000    0.0000    0.0000 C   0  0
    0.0000    0.0000    0.0000 N   0  0
    0.0000    0.0000    0.0000 C   0  0
    0.0000    0.0000    0.0000 C   0  0
    0.0000    0.0000    0.0000 C   0  0
    0.0000    0.0000    0.0000 C   0  0
    0.0000    0.0000    0.0000 N   0  0
    0.0000    0.0000    0.0000 C   0  0
    0.0000    0.0000    0.0000 C   0  0
    0.0000    0.0000    0.0000 C   0  0
    0.0000    0.0000    0.0000 C   0  0
    0.0000    0.0000    0.0000 C   0  0
    0.0000    0.0000    0.0000 C   0  0
    0.0000    0.0000    0.0000 C   0  0
    0.0000    0.0000    0.0000 C   0  0
  1  6  1  0
  1  2  2  3
  2  3  1  0
  3 10  1  0
  3  4  2  3
  4  5  1  0
  4  7  1  0
  5  6  2  3
  7  8  2  3
  8  9  1  0
  8 11  1  0
  9 10  2  3
 11 16  1  0
 11 12  2  3
 12 13  1  0
 13 20  1  0
 13 14  2  3
 14 15  1  0
 14 17  1  0
 15 16  2  3
 17 18  2  3
 18 19  1  0
 19 20  2  3
M  END
> <Name>
2,2'-Biquinoline

> <CAS>
000119-91-5

> <VED1>
4.413

> <nHAcc>
2

> <MAXDP>
1.69

> <CIC0>
3.752

> <Log Koc Exp>
4.02

> <Log Koc Pred>
4.65

> <Hat>
0.056

> <Hat Cutoff>
0.161

> <ID Model>
222

> <Smiles>
c1cc2c(cc1)nc(cc2)c1nc2c(cc1)cccc2

$$$$
Anthracene
  SciTegic03251110552D

 14 16  0  0  0  0            999 V2000
    0.0000    0.0000    0.0000 C   0  0
    0.0000    0.0000    0.0000 C   0  0
    0.0000    0.0000    0.0000 C   0  0
    0.0000    0.0000    0.0000 C   0  0
    0.0000    0.0000    0.0000 C   0  0
    0.0000    0.0000    0.0000 C   0  0
    0.0000    0.0000    0.0000 C   0  0
    0.0000    0.0000    0.0000 C   0  0
    0.0000    0.0000    0.0000 C   0  0
    0.0000    0.0000    0.0000 C   0  0
    0.0000    0.0000    0.0000 C   0  0
    0.0000    0.0000    0.0000 C   0  0
    0.0000    0.0000    0.0000 C   0  0
    0.0000    0.0000    0.0000 C   0  0
  1  6  1  0
  1  2  2  3
  2  3  1  0
  3  4  2  3
  4 10  1  0
  4  5  1  0
  5  6  2  3
  5  7  1  0
  7  8  2  3
  8 14  1  0
  8  9  1  0
  9 10  2  3
  9 11  1  0
 11 12  2  3
 12 13  1  0
 13 14  2  3
M  END
> <Name>
Anthracene

> <CAS>
000120-12-7

> <VED1>
3.702

> <nHAcc>
0

> <MAXDP>
0.241

> <CIC0>
3.605

> <Log Koc Exp>
4.34

> <Log Koc Pred>
4.33

> <Hat>
0.074

> <Hat Cutoff>
0.161

> <ID Model>
223

> <Smiles>
c1ccc2c(c1)cc1c(c2)cccc1

$$$$
Dichloroprop
  SciTegic03251110552D

 15 15  0  0  0  0            999 V2000
    0.0000    0.0000    0.0000 C   0  0
    0.0000    0.0000    0.0000 O   0  0
    0.0000    0.0000    0.0000 C   0  0
    0.0000    0.0000    0.0000 H   0  0
    0.0000    0.0000    0.0000 C   0  0
    0.0000    0.0000    0.0000 O   0  0
    0.0000    0.0000    0.0000 C   0  0
    0.0000    0.0000    0.0000 C   0  0
    0.0000    0.0000    0.0000 C   0  0
    0.0000    0.0000    0.0000 C   0  0
    0.0000    0.0000    0.0000 C   0  0
    0.0000    0.0000    0.0000 C   0  0
    0.0000    0.0000    0.0000 Cl  0  0
    0.0000    0.0000    0.0000 Cl  0  0
    0.0000    0.0000    0.0000 O   0  0
  1  2  2  0
  1  3  1  0
  1 15  1  0
  3  4  1  0
  3  5  1  0
  3  6  1  0
  6  7  1  0
  7 12  1  0
  7  8  2  3
  8  9  1  0
  8 14  1  0
  9 10  2  3
 10 11  1  0
 10 13  1  0
 11 12  2  3
M  END
> <Name>
Dichloroprop

> <CAS>
000120-36-5

> <VED1>
3.687

> <nHAcc>
3

> <MAXDP>
3.488

> <CIC0>
2.695

> <Log Koc Exp>
3

> <Log Koc Pred>
2.58

> <Hat>
0.015

> <Hat Cutoff>
0.161

> <ID Model>
224

> <Smiles>
C(=O)([C@H](C)Oc1c(cc(cc1)Cl)Cl)O

$$$$
Ethyl 4-hydroxybenzoate
  SciTegic03251110552D

 12 12  0  0  0  0            999 V2000
    0.0000    0.0000    0.0000 C   0  0
    0.0000    0.0000    0.0000 C   0  0
    0.0000    0.0000    0.0000 C   0  0
    0.0000    0.0000    0.0000 C   0  0
    0.0000    0.0000    0.0000 C   0  0
    0.0000    0.0000    0.0000 C   0  0
    0.0000    0.0000    0.0000 O   0  0
    0.0000    0.0000    0.0000 C   0  0
    0.0000    0.0000    0.0000 O   0  0
    0.0000    0.0000    0.0000 O   0  0
    0.0000    0.0000    0.0000 C   0  0
    0.0000    0.0000    0.0000 C   0  0
  1  6  1  0
  1  2  2  3
  1  8  1  0
  2  3  1  0
  3  4  2  3
  4  5  1  0
  4  7  1  0
  5  6  2  3
  8  9  2  0
  8 10  1  0
 10 11  1  0
 11 12  1  0
M  END
> <Name>
Ethyl 4-hydroxybenzoate

> <CAS>
000120-47-8

> <VED1>
3.406

> <nHAcc>
3

> <MAXDP>
4.052

> <CIC0>
3.023

> <Log Koc Exp>
2.21

> <Log Koc Pred>
1.71

> <Hat>
0.025

> <Hat Cutoff>
0.161

> <ID Model>
225

> <Smiles>
c1(ccc(cc1)O)C(=O)OCC

$$$$
Catechol
  SciTegic03251110552D

  8  8  0  0  0  0            999 V2000
    0.0000    0.0000    0.0000 C   0  0
    0.0000    0.0000    0.0000 C   0  0
    0.0000    0.0000    0.0000 C   0  0
    0.0000    0.0000    0.0000 C   0  0
    0.0000    0.0000    0.0000 C   0  0
    0.0000    0.0000    0.0000 C   0  0
    0.0000    0.0000    0.0000 O   0  0
    0.0000    0.0000    0.0000 O   0  0
  1  6  1  0
  1  2  2  3
  1  8  1  0
  2  3  1  0
  3  4  2  3
  4  5  1  0
  5  6  2  3
  6  7  1  0
M  END
> <Name>
Catechol

> <CAS>
000120-80-9

> <VED1>
2.802

> <nHAcc>
2

> <MAXDP>
2.669

> <CIC0>
2.359

> <Log Koc Exp>
2.05

> <Log Koc Pred>
1.42

> <Hat>
0.028

> <Hat Cutoff>
0.161

> <ID Model>
226

> <Smiles>
c1(ccccc1O)O

$$$$
1,2,4-Trichlorobenzene
  SciTegic03251110552D

  9  9  0  0  0  0            999 V2000
    0.0000    0.0000    0.0000 Cl  0  0
    0.0000    0.0000    0.0000 C   0  0
    0.0000    0.0000    0.0000 C   0  0
    0.0000    0.0000    0.0000 C   0  0
    0.0000    0.0000    0.0000 C   0  0
    0.0000    0.0000    0.0000 C   0  0
    0.0000    0.0000    0.0000 C   0  0
    0.0000    0.0000    0.0000 Cl  0  0
    0.0000    0.0000    0.0000 Cl  0  0
  1  2  1  0
  2  7  1  0
  2  3  2  3
  3  4  1  0
  3  9  1  0
  4  5  2  3
  5  6  1  0
  6  7  2  3
  6  8  1  0
M  END
> <Name>
1,2,4-Trichlorobenzene

> <CAS>
000120-82-1

> <VED1>
2.964

> <nHAcc>
0

> <MAXDP>
1.486

> <CIC0>
2.085

> <Log Koc Exp>
3.05

> <Log Koc Pred>
2.89

> <Hat>
0.039

> <Hat Cutoff>
0.161

> <ID Model>
227

> <Smiles>
Clc1c(ccc(c1)Cl)Cl

$$$$
2,4-Dichlorophenol
  SciTegic03251110552D

  9  9  0  0  0  0            999 V2000
    0.0000    0.0000    0.0000 C   0  0
    0.0000    0.0000    0.0000 C   0  0
    0.0000    0.0000    0.0000 C   0  0
    0.0000    0.0000    0.0000 C   0  0
    0.0000    0.0000    0.0000 C   0  0
    0.0000    0.0000    0.0000 C   0  0
    0.0000    0.0000    0.0000 O   0  0
    0.0000    0.0000    0.0000 Cl  0  0
    0.0000    0.0000    0.0000 Cl  0  0
  1  6  1  0
  1  2  2  3
  1  9  1  0
  2  3  1  0
  3  4  2  3
  3  8  1  0
  4  5  1  0
  5  6  2  3
  6  7  1  0
M  END
> <Name>
2,4-Dichlorophenol

> <CAS>
000120-83-2

> <VED1>
2.964

> <nHAcc>
1

> <MAXDP>
2.853

> <CIC0>
1.962

> <Log Koc Exp>
2.75

> <Log Koc Pred>
2.17

> <Hat>
0.04

> <Hat Cutoff>
0.161

> <ID Model>
228

> <Smiles>
c1(cc(ccc1O)Cl)Cl

$$$$
Malathion
  SciTegic03251110552D

 20 19  0  0  0  0            999 V2000
    0.0000    0.0000    0.0000 C   0  0
    0.0000    0.0000    0.0000 O   0  0
    0.0000    0.0000    0.0000 P   0  0
    0.0000    0.0000    0.0000 S   0  0
    0.0000    0.0000    0.0000 S   0  0
    0.0000    0.0000    0.0000 C   0  0
    0.0000    0.0000    0.0000 H   0  0
    0.0000    0.0000    0.0000 C   0  0
    0.0000    0.0000    0.0000 O   0  0
    0.0000    0.0000    0.0000 O   0  0
    0.0000    0.0000    0.0000 C   0  0
    0.0000    0.0000    0.0000 C   0  0
    0.0000    0.0000    0.0000 C   0  0
    0.0000    0.0000    0.0000 C   0  0
    0.0000    0.0000    0.0000 O   0  0
    0.0000    0.0000    0.0000 O   0  0
    0.0000    0.0000    0.0000 C   0  0
    0.0000    0.0000    0.0000 C   0  0
    0.0000    0.0000    0.0000 O   0  0
    0.0000    0.0000    0.0000 C   0  0
  1  2  1  0
  2  3  1  0
  3  4  2  0
  3  5  1  0
  3 19  1  0
  5  6  1  0
  6  7  1  0
  6  8  1  0
  6 13  1  0
  8  9  2  0
  8 10  1  0
 10 11  1  0
 11 12  1  0
 13 14  1  0
 14 15  2  0
 14 16  1  0
 16 17  1  0
 17 18  1  0
 19 20  1  0
M  END
> <Name>
Malathion

> <CAS>
000121-75-5

> <VED1>
4.28

> <nHAcc>
6

> <MAXDP>
4.802

> <CIC0>
3.459

> <Log Koc Exp>
2.68

> <Log Koc Pred>
2.15

> <Hat>
0.033

> <Hat Cutoff>
0.161

> <ID Model>
230

> <Smiles>
COP(=S)(S[C@@H](C(=O)OCC)CC(=O)OCC)OC

$$$$
Fenitrothion
  SciTegic03251110552D

 17 17  0  0  0  0            999 V2000
    0.0000    0.0000    0.0000 O   0  0
    0.0000    0.0000    0.0000 N   0  0
    0.0000    0.0000    0.0000 C   0  0
    0.0000    0.0000    0.0000 C   0  0
    0.0000    0.0000    0.0000 C   0  0
    0.0000    0.0000    0.0000 C   0  0
    0.0000    0.0000    0.0000 C   0  0
    0.0000    0.0000    0.0000 C   0  0
    0.0000    0.0000    0.0000 C   0  0
    0.0000    0.0000    0.0000 O   0  0
    0.0000    0.0000    0.0000 P   0  0
    0.0000    0.0000    0.0000 S   0  0
    0.0000    0.0000    0.0000 O   0  0
    0.0000    0.0000    0.0000 C   0  0
    0.0000    0.0000    0.0000 O   0  0
    0.0000    0.0000    0.0000 C   0  0
    0.0000    0.0000    0.0000 O   0  0
  1  2  1  0
  2  3  1  0
  2 17  1  0
  3  9  1  0
  3  4  2  3
  4  5  1  0
  4  6  1  0
  6  7  2  3
  7  8  1  0
  7 10  1  0
  8  9  2  3
 10 11  1  0
 11 12  2  0
 11 13  1  0
 11 15  1  0
 13 14  1  0
 15 16  1  0
M  END
> <Name>
Fenitrothion

> <CAS>
000122-14-5

> <VED1>
4.058

> <nHAcc>
5

> <MAXDP>
3.632

> <CIC0>
2.868

> <Log Koc Exp>
2.63

> <Log Koc Pred>
2.58

> <Hat>
0.027

> <Hat Cutoff>
0.161

> <ID Model>
232

> <Smiles>
ON(c1c(C)cc(cc1)OP(=S)(OC)OC)O

$$$$
3-Nitroacetanilide
  SciTegic03251110552D

 13 13  0  0  0  0            999 V2000
    0.0000    0.0000    0.0000 C   0  0
    0.0000    0.0000    0.0000 C   0  0
    0.0000    0.0000    0.0000 O   0  0
    0.0000    0.0000    0.0000 N   0  0
    0.0000    0.0000    0.0000 C   0  0
    0.0000    0.0000    0.0000 C   0  0
    0.0000    0.0000    0.0000 C   0  0
    0.0000    0.0000    0.0000 C   0  0
    0.0000    0.0000    0.0000 C   0  0
    0.0000    0.0000    0.0000 C   0  0
    0.0000    0.0000    0.0000 N   0  0
    0.0000    0.0000    0.0000 O   0  0
    0.0000    0.0000    0.0000 O   0  0
  1  2  1  0
  2  3  2  0
  2  4  1  0
  4  5  1  0
  5 10  1  0
  5  6  2  3
  6  7  1  0
  7  8  2  3
  7 11  1  0
  8  9  1  0
  9 10  2  3
 11 12  1  0
 11 13  1  0
M  END
> <Name>
3-Nitroacetanilide

> <CAS>
000122-28-1

> <VED1>
3.552

> <nHAcc>
4

> <MAXDP>
3.613

> <CIC0>
2.607

> <Log Koc Exp>
1.94

> <Log Koc Pred>
1.95

> <Hat>
0.018

> <Hat Cutoff>
0.161

> <ID Model>
233

> <Smiles>
CC(=O)Nc1cc(ccc1)N(O)O

$$$$
Simazine
  SciTegic03251110552D

 13 13  0  0  0  0            999 V2000
    0.0000    0.0000    0.0000 N   0  0
    0.0000    0.0000    0.0000 C   0  0
    0.0000    0.0000    0.0000 N   0  0
    0.0000    0.0000    0.0000 C   0  0
    0.0000    0.0000    0.0000 N   0  0
    0.0000    0.0000    0.0000 C   0  0
    0.0000    0.0000    0.0000 Cl  0  0
    0.0000    0.0000    0.0000 N   0  0
    0.0000    0.0000    0.0000 C   0  0
    0.0000    0.0000    0.0000 C   0  0
    0.0000    0.0000    0.0000 N   0  0
    0.0000    0.0000    0.0000 C   0  0
    0.0000    0.0000    0.0000 C   0  0
  1  6  1  0
  1  2  2  3
  2  3  1  0
  2 11  1  0
  3  4  2  3
  4  5  1  0
  4  8  1  0
  5  6  2  3
  6  7  1  0
  8  9  1  0
  9 10  1  0
 11 12  1  0
 12 13  1  0
M  END
> <Name>
Simazine

> <CAS>
000122-34-9

> <VED1>
3.539

> <nHAcc>
5

> <MAXDP>
1.568

> <CIC0>
2.971

> <Log Koc Exp>
2.12

> <Log Koc Pred>
2.09

> <Hat>
0.094

> <Hat Cutoff>
0.161

> <ID Model>
234

> <Smiles>
n1c(nc(nc1Cl)NCC)NCC

$$$$
Diphenylamine
  SciTegic03251110552D

 13 14  0  0  0  0            999 V2000
    0.0000    0.0000    0.0000 C   0  0
    0.0000    0.0000    0.0000 C   0  0
    0.0000    0.0000    0.0000 C   0  0
    0.0000    0.0000    0.0000 C   0  0
    0.0000    0.0000    0.0000 C   0  0
    0.0000    0.0000    0.0000 C   0  0
    0.0000    0.0000    0.0000 N   0  0
    0.0000    0.0000    0.0000 C   0  0
    0.0000    0.0000    0.0000 C   0  0
    0.0000    0.0000    0.0000 C   0  0
    0.0000    0.0000    0.0000 C   0  0
    0.0000    0.0000    0.0000 C   0  0
    0.0000    0.0000    0.0000 C   0  0
  1  6  1  0
  1  2  2  3
  2  3  1  0
  3  4  2  3
  3  7  1  0
  4  5  1  0
  5  6  2  3
  7  8  1  0
  8 13  1  0
  8  9  2  3
  9 10  1  0
 10 11  2  3
 11 12  1  0
 12 13  2  3
M  END
> <Name>
Diphenylamine

> <CAS>
000122-39-4

> <VED1>
3.564

> <nHAcc>
1

> <MAXDP>
0.804

> <CIC0>
3.378

> <Log Koc Exp>
2.78

> <Log Koc Pred>
3.6

> <Hat>
0.05

> <Hat Cutoff>
0.161

> <ID Model>
235

> <Smiles>
c1cc(ccc1)Nc1ccccc1

$$$$
1,2-Diphenylhydrazine
  SciTegic03251110552D

 14 15  0  0  0  0            999 V2000
    0.0000    0.0000    0.0000 N   0  0
    0.0000    0.0000    0.0000 N   0  0
    0.0000    0.0000    0.0000 C   0  0
    0.0000    0.0000    0.0000 C   0  0
    0.0000    0.0000    0.0000 C   0  0
    0.0000    0.0000    0.0000 C   0  0
    0.0000    0.0000    0.0000 C   0  0
    0.0000    0.0000    0.0000 C   0  0
    0.0000    0.0000    0.0000 C   0  0
    0.0000    0.0000    0.0000 C   0  0
    0.0000    0.0000    0.0000 C   0  0
    0.0000    0.0000    0.0000 C   0  0
    0.0000    0.0000    0.0000 C   0  0
    0.0000    0.0000    0.0000 C   0  0
  1  2  1  0
  1  9  1  0
  2  3  1  0
  3  8  1  0
  3  4  2  3
  4  5  1  0
  5  6  2  3
  6  7  1  0
  7  8  2  3
  9 14  1  0
  9 10  2  3
 10 11  1  0
 11 12  2  3
 12 13  1  0
 13 14  2  3
M  END
> <Name>
1,2-Diphenylhydrazine

> <CAS>
000122-66-7

> <VED1>
3.698

> <nHAcc>
2

> <MAXDP>
0.611

> <CIC0>
3.386

> <Log Koc Exp>
2.98

> <Log Koc Pred>
3.6

> <Hat>
0.067

> <Hat Cutoff>
0.161

> <ID Model>
237

> <Smiles>
N(Nc1ccccc1)c1ccccc1

$$$$
Maleic hydrazine
  SciTegic03251110552D

 10 10  0  0  0  0            999 V2000
    0.0000    0.0000    0.0000 C   0  0
    0.0000    0.0000    0.0000 O   0  0
    0.0000    0.0000    0.0000 C   0  0
    0.0000    0.0000    0.0000 C   0  0
    0.0000    0.0000    0.0000 C   0  0
    0.0000    0.0000    0.0000 O   0  0
    0.0000    0.0000    0.0000 N   0  0
    0.0000    0.0000    0.0000 H   0  0
    0.0000    0.0000    0.0000 N   0  0
    0.0000    0.0000    0.0000 H   0  0
  1  9  1  0
  1  2  2  0
  1  3  1  0
  3  4  2  3
  4  5  1  0
  5  6  2  0
  5  7  1  0
  7  8  1  0
  7  9  1  0
  9 10  1  0
M  END
> <Name>
Maleic hydrazine

> <CAS>
000123-33-1

> <VED1>
2.797

> <nHAcc>
4

> <MAXDP>
3.196

> <CIC0>
1.667

> <Log Koc Exp>
0.45

> <Log Koc Pred>
0.8

> <Hat>
0.057

> <Hat Cutoff>
0.161

> <ID Model>
238

> <Smiles>
c1(=O)ccc(=O)[nH][nH]1

$$$$
Ethyl hexanoate
  SciTegic03251110552D

 10  9  0  0  0  0            999 V2000
    0.0000    0.0000    0.0000 C   0  0
    0.0000    0.0000    0.0000 C   0  0
    0.0000    0.0000    0.0000 C   0  0
    0.0000    0.0000    0.0000 C   0  0
    0.0000    0.0000    0.0000 C   0  0
    0.0000    0.0000    0.0000 C   0  0
    0.0000    0.0000    0.0000 O   0  0
    0.0000    0.0000    0.0000 O   0  0
    0.0000    0.0000    0.0000 C   0  0
    0.0000    0.0000    0.0000 C   0  0
  1  2  1  0
  2  3  1  0
  3  4  1  0
  4  5  1  0
  5  6  1  0
  6  7  2  0
  6  8  1  0
  8  9  1  0
  9 10  1  0
M  END
> <Name>
Ethyl hexanoate

> <CAS>
000123-66-0

> <VED1>
3.107

> <nHAcc>
2

> <MAXDP>
3.696

> <CIC0>
3.462

> <Log Koc Exp>
2.06

> <Log Koc Pred>
1.38

> <Hat>
0.067

> <Hat Cutoff>
0.161

> <ID Model>
239

> <Smiles>
CCCCCC(=O)OCC

$$$$
1,4-Dioxane
  SciTegic03251110552D

  6  6  0  0  0  0            999 V2000
    0.0000    0.0000    0.0000 C   0  0
    0.0000    0.0000    0.0000 C   0  0
    0.0000    0.0000    0.0000 O   0  0
    0.0000    0.0000    0.0000 C   0  0
    0.0000    0.0000    0.0000 C   0  0
    0.0000    0.0000    0.0000 O   0  0
  1  6  1  0
  1  2  1  0
  2  3  1  0
  3  4  1  0
  4  5  1  0
  5  6  1  0
M  END
> <Name>
1,4-Dioxane

> <CAS>
000123-91-1

> <VED1>
2.449

> <nHAcc>
2

> <MAXDP>
1.444

> <CIC0>
2.429

> <Log Koc Exp>
1.23

> <Log Koc Pred>
1.04

> <Hat>
0.065

> <Hat Cutoff>
0.161

> <ID Model>
240

> <Smiles>
C1COCCO1

$$$$
Chlorodibromomethane
  SciTegic03251110552D

  4  3  0  0  0  0            999 V2000
    0.0000    0.0000    0.0000 C   0  0
    0.0000    0.0000    0.0000 Br  0  0
    0.0000    0.0000    0.0000 Br  0  0
    0.0000    0.0000    0.0000 Cl  0  0
  1  2  1  0
  1  3  1  0
  1  4  1  0
M  END
> <Name>
Chlorodibromomethane

> <CAS>
000124-48-1

> <VED1>
1.972

> <nHAcc>
0

> <MAXDP>
0.997

> <CIC0>
0.4

> <Log Koc Exp>
1.92

> <Log Koc Pred>
1.52

> <Hat>
0.142

> <Hat Cutoff>
0.161

> <ID Model>
241

> <Smiles>
C(Br)(Br)Cl

$$$$
Tetrachloroethene
  SciTegic03251110552D

  6  5  0  0  0  0            999 V2000
    0.0000    0.0000    0.0000 Cl  0  0
    0.0000    0.0000    0.0000 C   0  0
    0.0000    0.0000    0.0000 C   0  0
    0.0000    0.0000    0.0000 Cl  0  0
    0.0000    0.0000    0.0000 Cl  0  0
    0.0000    0.0000    0.0000 Cl  0  0
  1  2  1  0
  2  3  2  3
  2  6  1  0
  3  4  1  0
  3  5  1  0
M  END
> <Name>
Tetrachloroethene

> <CAS>
000127-18-4

> <VED1>
2.412

> <nHAcc>
0

> <MAXDP>
0.883

> <CIC0>
1.667

> <Log Koc Exp>
2.47

> <Log Koc Pred>
2.06

> <Hat>
0.052

> <Hat Cutoff>
0.161

> <ID Model>
242

> <Smiles>
ClC(=C(Cl)Cl)Cl

$$$$
Dibenzo[a,h]pyrene-7,14-dione
  SciTegic03251110552D

 26 31  0  0  0  0            999 V2000
    0.0000    0.0000    0.0000 C   0  0
    0.0000    0.0000    0.0000 C   0  0
    0.0000    0.0000    0.0000 C   0  0
    0.0000    0.0000    0.0000 C   0  0
    0.0000    0.0000    0.0000 C   0  0
    0.0000    0.0000    0.0000 C   0  0
    0.0000    0.0000    0.0000 C   0  0
    0.0000    0.0000    0.0000 O   0  0
    0.0000    0.0000    0.0000 C   0  0
    0.0000    0.0000    0.0000 C   0  0
    0.0000    0.0000    0.0000 C   0  0
    0.0000    0.0000    0.0000 C   0  0
    0.0000    0.0000    0.0000 C   0  0
    0.0000    0.0000    0.0000 C   0  0
    0.0000    0.0000    0.0000 C   0  0
    0.0000    0.0000    0.0000 C   0  0
    0.0000    0.0000    0.0000 C   0  0
    0.0000    0.0000    0.0000 C   0  0
    0.0000    0.0000    0.0000 C   0  0
    0.0000    0.0000    0.0000 C   0  0
    0.0000    0.0000    0.0000 C   0  0
    0.0000    0.0000    0.0000 O   0  0
    0.0000    0.0000    0.0000 C   0  0
    0.0000    0.0000    0.0000 C   0  0
    0.0000    0.0000    0.0000 C   0  0
    0.0000    0.0000    0.0000 C   0  0
  1  6  1  0
  1  2  2  3
  2  3  1  0
  3  4  2  3
  4 11  1  0
  4  5  1  0
  5  6  2  3
  5  7  1  0
  7  8  2  0
  7  9  1  0
  9 18  1  0
  9 10  2  3
 10 15  1  0
 10 11  1  0
 11 12  2  3
 12 13  1  0
 13 14  2  3
 14 21  1  0
 14 15  1  0
 15 16  2  3
 16 17  1  0
 16 19  1  0
 17 18  2  3
 19 26  1  0
 19 20  2  3
 20 21  1  0
 20 23  1  0
 21 22  2  0
 23 24  2  3
 24 25  1  0
 25 26  2  3
M  END
> <Name>
Dibenzo[a,h]pyrene-7,14-dione

> <CAS>
000128-66-5

> <VED1>
5.029

> <nHAcc>
2

> <MAXDP>
6.066

> <CIC0>
4.08

> <Log Koc Exp>
4.28

> <Log Koc Pred>
4.48

> <Hat>
0.147

> <Hat Cutoff>
0.161

> <ID Model>
243

> <Smiles>
c1ccc2c(c1)C(=O)c1c3c2ccc2c3c(cc1)c1c(C2=O)cccc1

$$$$
Pyrene
  SciTegic03251110552D

 16 19  0  0  0  0            999 V2000
    0.0000    0.0000    0.0000 C   0  0
    0.0000    0.0000    0.0000 C   0  0
    0.0000    0.0000    0.0000 C   0  0
    0.0000    0.0000    0.0000 C   0  0
    0.0000    0.0000    0.0000 C   0  0
    0.0000    0.0000    0.0000 C   0  0
    0.0000    0.0000    0.0000 C   0  0
    0.0000    0.0000    0.0000 C   0  0
    0.0000    0.0000    0.0000 C   0  0
    0.0000    0.0000    0.0000 C   0  0
    0.0000    0.0000    0.0000 C   0  0
    0.0000    0.0000    0.0000 C   0  0
    0.0000    0.0000    0.0000 C   0  0
    0.0000    0.0000    0.0000 C   0  0
    0.0000    0.0000    0.0000 C   0  0
    0.0000    0.0000    0.0000 C   0  0
  1  6  1  0
  1  2  2  3
  2 13  1  0
  2  3  1  0
  3 10  1  0
  3  4  2  3
  4  5  1  0
  4  7  1  0
  5  6  2  3
  7  8  2  3
  8  9  1  0
  9 16  1  0
  9 10  2  3
 10 11  1  0
 11 12  1  0
 11 14  2  3
 12 13  2  3
 14 15  1  0
 15 16  2  3
M  END
> <Name>
Pyrene

> <CAS>
000129-00-0

> <VED1>
3.966

> <nHAcc>
0

> <MAXDP>
0.212

> <CIC0>
3.739

> <Log Koc Exp>
4.79

> <Log Koc Pred>
4.85

> <Hat>
0.087

> <Hat Cutoff>
0.161

> <ID Model>
244

> <Smiles>
c1c2c3c(cc1)ccc1c3c(cc2)ccc1

$$$$
Dimethyl phthalate
  SciTegic03251110552D

 14 14  0  0  0  0            999 V2000
    0.0000    0.0000    0.0000 C   0  0
    0.0000    0.0000    0.0000 C   0  0
    0.0000    0.0000    0.0000 C   0  0
    0.0000    0.0000    0.0000 C   0  0
    0.0000    0.0000    0.0000 C   0  0
    0.0000    0.0000    0.0000 C   0  0
    0.0000    0.0000    0.0000 C   0  0
    0.0000    0.0000    0.0000 O   0  0
    0.0000    0.0000    0.0000 O   0  0
    0.0000    0.0000    0.0000 C   0  0
    0.0000    0.0000    0.0000 C   0  0
    0.0000    0.0000    0.0000 O   0  0
    0.0000    0.0000    0.0000 O   0  0
    0.0000    0.0000    0.0000 C   0  0
  1  6  1  0
  1  2  2  3
  2  3  1  0
  3  4  2  3
  4  5  1  0
  4 11  1  0
  5  6  2  3
  5  7  1  0
  7  8  2  0
  7  9  1  0
  9 10  1  0
 11 12  2  0
 11 13  1  0
 13 14  1  0
M  END
> <Name>
Dimethyl phthalate

> <CAS>
000131-11-3

> <VED1>
3.68

> <nHAcc>
4

> <MAXDP>
4.225

> <CIC0>
3.102

> <Log Koc Exp>
2

> <Log Koc Pred>
1.87

> <Hat>
0.02

> <Hat Cutoff>
0.161

> <ID Model>
245

> <Smiles>
c1ccc(c(c1)C(=O)OC)C(=O)OC

$$$$
Dibenzofuran
  SciTegic03251110552D

 13 15  0  0  0  0            999 V2000
    0.0000    0.0000    0.0000 C   0  0
    0.0000    0.0000    0.0000 C   0  0
    0.0000    0.0000    0.0000 C   0  0
    0.0000    0.0000    0.0000 C   0  0
    0.0000    0.0000    0.0000 C   0  0
    0.0000    0.0000    0.0000 C   0  0
    0.0000    0.0000    0.0000 O   0  0
    0.0000    0.0000    0.0000 C   0  0
    0.0000    0.0000    0.0000 C   0  0
    0.0000    0.0000    0.0000 C   0  0
    0.0000    0.0000    0.0000 C   0  0
    0.0000    0.0000    0.0000 C   0  0
    0.0000    0.0000    0.0000 C   0  0
  1  6  1  0
  1  2  2  3
  2  3  1  0
  3  9  1  0
  3  4  2  3
  4  5  1  0
  4  7  1  0
  5  6  2  3
  7  8  1  0
  8 13  1  0
  8  9  2  3
  9 10  1  0
 10 11  2  3
 11 12  1  0
 12 13  2  3
M  END
> <Name>
Dibenzofuran

> <CAS>
000132-64-9

> <VED1>
3.568

> <nHAcc>
1

> <MAXDP>
2.152

> <CIC0>
3.191

> <Log Koc Exp>
3.91

> <Log Koc Pred>
3.59

> <Hat>
0.033

> <Hat Cutoff>
0.161

> <ID Model>
246

> <Smiles>
c1cc2c(cc1)oc1c2cccc1

$$$$
Dibenzothiophene
  SciTegic03251110552D

 13 15  0  0  0  0            999 V2000
    0.0000    0.0000    0.0000 C   0  0
    0.0000    0.0000    0.0000 C   0  0
    0.0000    0.0000    0.0000 C   0  0
    0.0000    0.0000    0.0000 C   0  0
    0.0000    0.0000    0.0000 C   0  0
    0.0000    0.0000    0.0000 C   0  0
    0.0000    0.0000    0.0000 C   0  0
    0.0000    0.0000    0.0000 C   0  0
    0.0000    0.0000    0.0000 C   0  0
    0.0000    0.0000    0.0000 C   0  0
    0.0000    0.0000    0.0000 C   0  0
    0.0000    0.0000    0.0000 C   0  0
    0.0000    0.0000    0.0000 S   0  0
  1  6  1  0
  1  2  2  3
  2  3  1  0
  3  4  2  3
  4 13  1  0
  4  5  1  0
  5  6  2  3
  5  7  1  0
  7 12  1  0
  7  8  2  3
  8  9  1  0
  8 13  1  0
  9 10  2  3
 10 11  1  0
 11 12  2  3
M  END
> <Name>
Dibenzothiophene

> <CAS>
000132-65-0

> <VED1>
3.568

> <nHAcc>
0

> <MAXDP>
0.189

> <CIC0>
3.191

> <Log Koc Exp>
4.05

> <Log Koc Pred>
4.2

> <Hat>
0.063

> <Hat Cutoff>
0.161

> <ID Model>
247

> <Smiles>
c1ccc2c(c1)c1c(cccc1)s2

$$$$
Captan
  SciTegic03251110552D

 18 19  0  0  0  0            999 V2000
    0.0000    0.0000    0.0000 C   0  0
    0.0000    0.0000    0.0000 C   0  0
    0.0000    0.0000    0.0000 C   0  0
    0.0000    0.0000    0.0000 C   0  0
    0.0000    0.0000    0.0000 C   0  0
    0.0000    0.0000    0.0000 H   0  0
    0.0000    0.0000    0.0000 C   0  0
    0.0000    0.0000    0.0000 H   0  0
    0.0000    0.0000    0.0000 C   0  0
    0.0000    0.0000    0.0000 O   0  0
    0.0000    0.0000    0.0000 N   0  0
    0.0000    0.0000    0.0000 C   0  0
    0.0000    0.0000    0.0000 O   0  0
    0.0000    0.0000    0.0000 S   0  0
    0.0000    0.0000    0.0000 C   0  0
    0.0000    0.0000    0.0000 Cl  0  0
    0.0000    0.0000    0.0000 Cl  0  0
    0.0000    0.0000    0.0000 Cl  0  0
  1  7  1  0
  1  2  1  0
  2  3  2  3
  3  4  1  0
  4  5  1  0
  5  6  1  0
  5 12  1  0
  5  7  1  0
  7  8  1  0
  7  9  1  0
  9 10  2  0
  9 11  1  0
 11 12  1  0
 11 14  1  0
 12 13  2  0
 14 15  1  0
 15 16  1  0
 15 17  1  0
 15 18  1  0
M  END
> <Name>
Captan

> <CAS>
000133-06-2

> <VED1>
3.944

> <nHAcc>
3

> <MAXDP>
4.902

> <CIC0>
2.47

> <Log Koc Exp>
2.3

> <Log Koc Pred>
2.76

> <Hat>
0.063

> <Hat Cutoff>
0.161

> <ID Model>
248

> <Smiles>
C1C=CC[C@H]2[C@H]1C(=O)N(C2=O)SC(Cl)(Cl)Cl

$$$$
Folpet
  SciTegic03251110552D

 16 17  0  0  0  0            999 V2000
    0.0000    0.0000    0.0000 C   0  0
    0.0000    0.0000    0.0000 C   0  0
    0.0000    0.0000    0.0000 C   0  0
    0.0000    0.0000    0.0000 C   0  0
    0.0000    0.0000    0.0000 C   0  0
    0.0000    0.0000    0.0000 C   0  0
    0.0000    0.0000    0.0000 C   0  0
    0.0000    0.0000    0.0000 O   0  0
    0.0000    0.0000    0.0000 N   0  0
    0.0000    0.0000    0.0000 C   0  0
    0.0000    0.0000    0.0000 O   0  0
    0.0000    0.0000    0.0000 S   0  0
    0.0000    0.0000    0.0000 C   0  0
    0.0000    0.0000    0.0000 Cl  0  0
    0.0000    0.0000    0.0000 Cl  0  0
    0.0000    0.0000    0.0000 Cl  0  0
  1  6  1  0
  1  2  2  3
  2  3  1  0
  3  4  2  3
  4 10  1  0
  4  5  1  0
  5  6  2  3
  5  7  1  0
  7  8  2  0
  7  9  1  0
  9 10  1  0
  9 12  1  0
 10 11  2  0
 12 13  1  0
 13 14  1  0
 13 15  1  0
 13 16  1  0
M  END
> <Name>
Folpet

> <CAS>
000133-07-3

> <VED1>
3.944

> <nHAcc>
3

> <MAXDP>
4.793

> <CIC0>
2.164

> <Log Koc Exp>
3.27

> <Log Koc Pred>
2.89

> <Hat>
0.086

> <Hat Cutoff>
0.161

> <ID Model>
249

> <Smiles>
c1ccc2c(c1)C(=O)N(C2=O)SC(Cl)(Cl)Cl

$$$$
Chlorambed
  SciTegic03251110552D

 12 12  0  0  0  0            999 V2000
    0.0000    0.0000    0.0000 C   0  0
    0.0000    0.0000    0.0000 C   0  0
    0.0000    0.0000    0.0000 C   0  0
    0.0000    0.0000    0.0000 C   0  0
    0.0000    0.0000    0.0000 C   0  0
    0.0000    0.0000    0.0000 C   0  0
    0.0000    0.0000    0.0000 N   0  0
    0.0000    0.0000    0.0000 Cl  0  0
    0.0000    0.0000    0.0000 C   0  0
    0.0000    0.0000    0.0000 O   0  0
    0.0000    0.0000    0.0000 O   0  0
    0.0000    0.0000    0.0000 Cl  0  0
  1  6  1  0
  1  2  2  3
  1 12  1  0
  2  3  1  0
  3  4  2  3
  3  9  1  0
  4  5  1  0
  4  8  1  0
  5  6  2  3
  5  7  1  0
  9 10  2  0
  9 11  1  0
M  END
> <Name>
Chlorambed

> <CAS>
000133-90-4

> <VED1>
3.416

> <nHAcc>
3

> <MAXDP>
3.528

> <CIC0>
2.074

> <Log Koc Exp>
1.4

> <Log Koc Pred>
2.2

> <Hat>
0.035

> <Hat Cutoff>
0.161

> <ID Model>
250

> <Smiles>
c1(cc(c(c(c1)N)Cl)C(=O)O)Cl

$$$$
1-Aminonaphthalene
  SciTegic03251110552D

 11 12  0  0  0  0            999 V2000
    0.0000    0.0000    0.0000 C   0  0
    0.0000    0.0000    0.0000 C   0  0
    0.0000    0.0000    0.0000 C   0  0
    0.0000    0.0000    0.0000 C   0  0
    0.0000    0.0000    0.0000 C   0  0
    0.0000    0.0000    0.0000 C   0  0
    0.0000    0.0000    0.0000 C   0  0
    0.0000    0.0000    0.0000 C   0  0
    0.0000    0.0000    0.0000 C   0  0
    0.0000    0.0000    0.0000 C   0  0
    0.0000    0.0000    0.0000 N   0  0
  1  6  1  0
  1  2  2  3
  2  3  1  0
  3  4  2  3
  4  5  1  0
  5 10  1  0
  5  6  2  3
  6  7  1  0
  7  8  2  3
  7 11  1  0
  8  9  1  0
  9 10  2  3
M  END
> <Name>
1-Aminonaphthalene

> <CAS>
000134-32-7

> <VED1>
3.287

> <nHAcc>
1

> <MAXDP>
1.756

> <CIC0>
3.087

> <Log Koc Exp>
3.51

> <Log Koc Pred>
2.82

> <Hat>
0.025

> <Hat Cutoff>
0.161

> <ID Model>
251

> <Smiles>
c1cccc2c1c(ccc2)N

$$$$
Propazine
  SciTegic03251110552D

 15 15  0  0  0  0            999 V2000
    0.0000    0.0000    0.0000 N   0  0
    0.0000    0.0000    0.0000 C   0  0
    0.0000    0.0000    0.0000 N   0  0
    0.0000    0.0000    0.0000 C   0  0
    0.0000    0.0000    0.0000 N   0  0
    0.0000    0.0000    0.0000 C   0  0
    0.0000    0.0000    0.0000 Cl  0  0
    0.0000    0.0000    0.0000 N   0  0
    0.0000    0.0000    0.0000 C   0  0
    0.0000    0.0000    0.0000 C   0  0
    0.0000    0.0000    0.0000 C   0  0
    0.0000    0.0000    0.0000 N   0  0
    0.0000    0.0000    0.0000 C   0  0
    0.0000    0.0000    0.0000 C   0  0
    0.0000    0.0000    0.0000 C   0  0
  1  6  1  0
  1  2  2  3
  2  3  1  0
  2 12  1  0
  3  4  2  3
  4  5  1  0
  4  8  1  0
  5  6  2  3
  6  7  1  0
  8  9  1  0
  9 10  1  0
  9 11  1  0
 12 13  1  0
 13 14  1  0
 13 15  1  0
M  END
> <Name>
Propazine

> <CAS>
000139-40-2

> <VED1>
3.809

> <nHAcc>
5

> <MAXDP>
1.664

> <CIC0>
3.359

> <Log Koc Exp>
2.3

> <Log Koc Pred>
2.5

> <Hat>
0.094

> <Hat Cutoff>
0.161

> <ID Model>
253

> <Smiles>
n1c(nc(nc1Cl)NC(C)C)NC(C)C

$$$$
4,4'-Thiodianiline
  SciTegic03251110552D

 15 16  0  0  0  0            999 V2000
    0.0000    0.0000    0.0000 C   0  0
    0.0000    0.0000    0.0000 C   0  0
    0.0000    0.0000    0.0000 C   0  0
    0.0000    0.0000    0.0000 C   0  0
    0.0000    0.0000    0.0000 C   0  0
    0.0000    0.0000    0.0000 C   0  0
    0.0000    0.0000    0.0000 S   0  0
    0.0000    0.0000    0.0000 C   0  0
    0.0000    0.0000    0.0000 C   0  0
    0.0000    0.0000    0.0000 C   0  0
    0.0000    0.0000    0.0000 C   0  0
    0.0000    0.0000    0.0000 C   0  0
    0.0000    0.0000    0.0000 C   0  0
    0.0000    0.0000    0.0000 N   0  0
    0.0000    0.0000    0.0000 N   0  0
  1  6  1  0
  1  2  2  3
  2  3  1  0
  2 15  1  0
  3  4  2  3
  4  5  1  0
  5  6  2  3
  5  7  1  0
  7  8  1  0
  8 13  1  0
  8  9  2  3
  9 10  1  0
 10 11  2  3
 11 12  1  0
 11 14  1  0
 12 13  2  3
M  END
> <Name>
4,4'-Thiodianiline

> <CAS>
000139-65-1

> <VED1>
3.817

> <nHAcc>
2

> <MAXDP>
1.614

> <CIC0>
3.261

> <Log Koc Exp>
2.04

> <Log Koc Pred>
3.58

> <Hat>
0.031

> <Hat Cutoff>
0.161

> <ID Model>
254

> <Smiles>
c1c(ccc(c1)Sc1ccc(cc1)N)N

$$$$
Dicrotophos(cis)
  SciTegic03251110552D

 15 14  0  0  0  0            999 V2000
    0.0000    0.0000    0.0000 N   0  0
    0.0000    0.0000    0.0000 C   0  0
    0.0000    0.0000    0.0000 O   0  0
    0.0000    0.0000    0.0000 C   0  0
    0.0000    0.0000    0.0000 C   0  0
    0.0000    0.0000    0.0000 C   0  0
    0.0000    0.0000    0.0000 O   0  0
    0.0000    0.0000    0.0000 P   0  0
    0.0000    0.0000    0.0000 O   0  0
    0.0000    0.0000    0.0000 O   0  0
    0.0000    0.0000    0.0000 C   0  0
    0.0000    0.0000    0.0000 O   0  0
    0.0000    0.0000    0.0000 C   0  0
    0.0000    0.0000    0.0000 C   0  0
    0.0000    0.0000    0.0000 C   0  0
  1  2  1  0
  1 14  1  0
  1 15  1  0
  2  3  2  0
  2  4  1  0
  4  5  2  3
  5  6  1  0
  5  7  1  0
  7  8  1  0
  8  9  2  0
  8 10  1  0
  8 12  1  0
 10 11  1  0
 12 13  1  0
M  END
> <Name>
Dicrotophos(cis)

> <CAS>
000141-66-2

> <VED1>
3.816

> <nHAcc>
6

> <MAXDP>
4.48

> <CIC0>
3.213

> <Log Koc Exp>
1.66

> <Log Koc Pred>
1.36

> <Hat>
0.046

> <Hat Cutoff>
0.161

> <ID Model>
255

> <Smiles>
N(C(=O)C=C(C)OP(=O)(OC)OC)(C)C

$$$$
Hexanoic Acid
  SciTegic03251110552D

  8  7  0  0  0  0            999 V2000
    0.0000    0.0000    0.0000 C   0  0
    0.0000    0.0000    0.0000 C   0  0
    0.0000    0.0000    0.0000 C   0  0
    0.0000    0.0000    0.0000 C   0  0
    0.0000    0.0000    0.0000 C   0  0
    0.0000    0.0000    0.0000 C   0  0
    0.0000    0.0000    0.0000 O   0  0
    0.0000    0.0000    0.0000 O   0  0
  1  2  1  0
  2  3  1  0
  3  4  1  0
  4  5  1  0
  5  6  1  0
  6  7  2  0
  6  8  1  0
M  END
> <Name>
Hexanoic Acid

> <CAS>
000142-62-1

> <VED1>
2.785

> <nHAcc>
2

> <MAXDP>
2.874

> <CIC0>
3.026

> <Log Koc Exp>
1.46

> <Log Koc Pred>
1.1

> <Hat>
0.058

> <Hat Cutoff>
0.161

> <ID Model>
256

> <Smiles>
CCCCCC(=O)O

$$$$
1-Nonanol
  SciTegic03251110552D

 10  9  0  0  0  0            999 V2000
    0.0000    0.0000    0.0000 C   0  0
    0.0000    0.0000    0.0000 C   0  0
    0.0000    0.0000    0.0000 C   0  0
    0.0000    0.0000    0.0000 C   0  0
    0.0000    0.0000    0.0000 C   0  0
    0.0000    0.0000    0.0000 C   0  0
    0.0000    0.0000    0.0000 C   0  0
    0.0000    0.0000    0.0000 C   0  0
    0.0000    0.0000    0.0000 C   0  0
    0.0000    0.0000    0.0000 O   0  0
  1  2  1  0
  2  3  1  0
  3  4  1  0
  4  5  1  0
  5  6  1  0
  6  7  1  0
  7  8  1  0
  8  9  1  0
  9 10  1  0
M  END
> <Name>
1-Nonanol

> <CAS>
000143-08-8

> <VED1>
3.11

> <nHAcc>
1

> <MAXDP>
2.469

> <CIC0>
3.832

> <Log Koc Exp>
1.89

> <Log Koc Pred>
1.98

> <Hat>
0.088

> <Hat Cutoff>
0.161

> <ID Model>
257

> <Smiles>
CCCCCCCCCO

$$$$
Chlordecone
  SciTegic03251110552D

 21 25  0  0  0  0            999 V2000
    0.0000    0.0000    0.0000 C   0  0
    0.0000    0.0000    0.0000 C   0  0
    0.0000    0.0000    0.0000 C   0  0
    0.0000    0.0000    0.0000 C   0  0
    0.0000    0.0000    0.0000 C   0  0
    0.0000    0.0000    0.0000 C   0  0
    0.0000    0.0000    0.0000 C   0  0
    0.0000    0.0000    0.0000 C   0  0
    0.0000    0.0000    0.0000 C   0  0
    0.0000    0.0000    0.0000 O   0  0
    0.0000    0.0000    0.0000 C   0  0
    0.0000    0.0000    0.0000 Cl  0  0
    0.0000    0.0000    0.0000 Cl  0  0
    0.0000    0.0000    0.0000 Cl  0  0
    0.0000    0.0000    0.0000 Cl  0  0
    0.0000    0.0000    0.0000 Cl  0  0
    0.0000    0.0000    0.0000 Cl  0  0
    0.0000    0.0000    0.0000 Cl  0  0
    0.0000    0.0000    0.0000 Cl  0  0
    0.0000    0.0000    0.0000 Cl  0  0
    0.0000    0.0000    0.0000 Cl  0  0
  1  5  1  0
  1 11  1  0
  1  2  1  0
  1 21  1  0
  2  8  1  0
  2  3  1  0
  2 20  1  0
  3  7  1  0
  3  4  1  0
  3 19  1  0
  4  5  1  0
  4 17  1  0
  4 18  1  0
  5  6  1  0
  5 16  1  0
  6 11  1  0
  6  7  1  0
  6 15  1  0
  7  8  1  0
  7 14  1  0
  8  9  1  0
  8 13  1  0
  9 10  2  0
  9 11  1  0
 11 12  1  0
M  END
> <Name>
Chlordecone

> <CAS>
000143-50-0

> <VED1>
4.519

> <nHAcc>
1

> <MAXDP>
5.77

> <CIC0>
3.164

> <Log Koc Exp>
4.2

> <Log Koc Pred>
4.14

> <Hat>
0.174*

> <Hat Cutoff>
0.161

> <ID Model>
258

> <Smiles>
[C@]12([C@]3([C@]4(C([C@@]1([C@@]1([C@]4([C@]3(C(=O)[C@]21Cl)Cl)Cl)Cl)Cl)(Cl)Cl)Cl)Cl)Cl

$$$$
Endothal
  SciTegic03251110552D

 17 18  0  0  0  0            999 V2000
    0.0000    0.0000    0.0000 C   0  0
    0.0000    0.0000    0.0000 O   0  0
    0.0000    0.0000    0.0000 C   0  0
    0.0000    0.0000    0.0000 H   0  0
    0.0000    0.0000    0.0000 C   0  0
    0.0000    0.0000    0.0000 H   0  0
    0.0000    0.0000    0.0000 C   0  0
    0.0000    0.0000    0.0000 H   0  0
    0.0000    0.0000    0.0000 C   0  0
    0.0000    0.0000    0.0000 C   0  0
    0.0000    0.0000    0.0000 C   0  0
    0.0000    0.0000    0.0000 H   0  0
    0.0000    0.0000    0.0000 O   0  0
    0.0000    0.0000    0.0000 C   0  0
    0.0000    0.0000    0.0000 O   0  0
    0.0000    0.0000    0.0000 O   0  0
    0.0000    0.0000    0.0000 O   0  0
  1  2  2  0
  1  3  1  0
  1 17  1  0
  3  4  1  0
  3 11  1  0
  3  5  1  0
  5  6  1  0
  5  7  1  0
  5 14  1  0
  7  8  1  0
  7 13  1  0
  7  9  1  0
  9 10  1  0
 10 11  1  0
 11 12  1  0
 11 13  1  0
 14 15  2  0
 14 16  1  0
M  END
> <Name>
Endothal

> <CAS>
000145-73-3

> <VED1>
3.551

> <nHAcc>
5

> <MAXDP>
3.763

> <CIC0>
2.993

> <Log Koc Exp>
2.09

> <Log Koc Pred>
1.44

> <Hat>
0.035

> <Hat Cutoff>
0.161

> <ID Model>
259

> <Smiles>
C(=O)([C@@H]1[C@H]([C@H]2CC[C@@H]1O2)C(=O)O)O

$$$$
Thiabendazole
  SciTegic03251110552D

 15 17  0  0  0  0            999 V2000
    0.0000    0.0000    0.0000 C   0  0
    0.0000    0.0000    0.0000 C   0  0
    0.0000    0.0000    0.0000 C   0  0
    0.0000    0.0000    0.0000 C   0  0
    0.0000    0.0000    0.0000 C   0  0
    0.0000    0.0000    0.0000 C   0  0
    0.0000    0.0000    0.0000 N   0  0
    0.0000    0.0000    0.0000 C   0  0
    0.0000    0.0000    0.0000 N   0  0
    0.0000    0.0000    0.0000 H   0  0
    0.0000    0.0000    0.0000 C   0  0
    0.0000    0.0000    0.0000 C   0  0
    0.0000    0.0000    0.0000 S   0  0
    0.0000    0.0000    0.0000 C   0  0
    0.0000    0.0000    0.0000 N   0  0
  1  6  1  0
  1  9  1  0
  1  2  2  3
  2  3  1  0
  3  4  2  3
  4  5  1  0
  5  6  2  3
  6  7  1  0
  7  8  2  3
  8  9  1  0
  8 11  1  0
  9 10  1  0
 11 15  1  0
 11 12  2  3
 12 13  1  0
 13 14  1  0
 14 15  2  3
M  END
> <Name>
Thiabendazole

> <CAS>
000148-79-8

> <VED1>
3.696

> <nHAcc>
2

> <MAXDP>
1.444

> <CIC0>
2.744

> <Log Koc Exp>
3.24

> <Log Koc Pred>
3.55

> <Hat>
0.036

> <Hat Cutoff>
0.161

> <ID Model>
260

> <Smiles>
c12ccccc1nc([nH]2)c1cscn1

$$$$
2-Benzothiazolethiol
  SciTegic03251110552D

 11 12  0  0  0  0            999 V2000
    0.0000    0.0000    0.0000 S   0  0
    0.0000    0.0000    0.0000 C   0  0
    0.0000    0.0000    0.0000 C   0  0
    0.0000    0.0000    0.0000 C   0  0
    0.0000    0.0000    0.0000 C   0  0
    0.0000    0.0000    0.0000 C   0  0
    0.0000    0.0000    0.0000 C   0  0
    0.0000    0.0000    0.0000 N   0  0
    0.0000    0.0000    0.0000 H   0  0
    0.0000    0.0000    0.0000 C   0  0
    0.0000    0.0000    0.0000 S   0  0
  1 10  1  0
  1  2  1  0
  2  7  1  0
  2  3  2  3
  3  4  1  0
  3  8  1  0
  4  5  2  3
  5  6  1  0
  6  7  2  3
  8  9  1  0
  8 10  1  0
 10 11  2  0
M  END
> <Name>
2-Benzothiazolethiol

> <CAS>
000149-30-4

> <VED1>
3.13

> <nHAcc>
1

> <MAXDP>
1.309

> <CIC0>
2.217

> <Log Koc Exp>
2.25

> <Log Koc Pred>
2.91

> <Hat>
0.033

> <Hat Cutoff>
0.161

> <ID Model>
261

> <Smiles>
s1c2c(cccc2)[nH]c1=S

$$$$
4-Aminobenzoic acid
  SciTegic03251110552D

 10 10  0  0  0  0            999 V2000
    0.0000    0.0000    0.0000 C   0  0
    0.0000    0.0000    0.0000 C   0  0
    0.0000    0.0000    0.0000 C   0  0
    0.0000    0.0000    0.0000 C   0  0
    0.0000    0.0000    0.0000 C   0  0
    0.0000    0.0000    0.0000 C   0  0
    0.0000    0.0000    0.0000 C   0  0
    0.0000    0.0000    0.0000 O   0  0
    0.0000    0.0000    0.0000 O   0  0
    0.0000    0.0000    0.0000 N   0  0
  1  6  1  0
  1  2  2  3
  1 10  1  0
  2  3  1  0
  3  4  2  3
  4  5  1  0
  4  7  1  0
  5  6  2  3
  7  8  2  0
  7  9  1  0
M  END
> <Name>
4-Aminobenzoic acid

> <CAS>
000150-13-0

> <VED1>
3.117

> <nHAcc>
3

> <MAXDP>
3.271

> <CIC0>
2.43

> <Log Koc Exp>
2.05

> <Log Koc Pred>
1.54

> <Hat>
0.022

> <Hat Cutoff>
0.161

> <ID Model>
262

> <Smiles>
c1(ccc(cc1)C(=O)O)N

$$$$
3-Methoxyphenol
  SciTegic03251110552D

  9  9  0  0  0  0            999 V2000
    0.0000    0.0000    0.0000 O   0  0
    0.0000    0.0000    0.0000 C   0  0
    0.0000    0.0000    0.0000 C   0  0
    0.0000    0.0000    0.0000 C   0  0
    0.0000    0.0000    0.0000 C   0  0
    0.0000    0.0000    0.0000 C   0  0
    0.0000    0.0000    0.0000 C   0  0
    0.0000    0.0000    0.0000 O   0  0
    0.0000    0.0000    0.0000 C   0  0
  1  2  1  0
  2  7  1  0
  2  3  2  3
  3  4  1  0
  4  5  2  3
  5  6  1  0
  6  7  2  3
  6  8  1  0
  8  9  1  0
M  END
> <Name>
3-Methoxyphenol

> <CAS>
000150-19-6

> <VED1>
2.962

> <nHAcc>
2

> <MAXDP>
2.864

> <CIC0>
2.685

> <Log Koc Exp>
1.5

> <Log Koc Pred>
1.59

> <Hat>
0.026

> <Hat Cutoff>
0.161

> <ID Model>
263

> <Smiles>
Oc1cccc(c1)OC

$$$$
Monuron
  SciTegic03251110552D

 13 13  0  0  0  0            999 V2000
    0.0000    0.0000    0.0000 C   0  0
    0.0000    0.0000    0.0000 C   0  0
    0.0000    0.0000    0.0000 C   0  0
    0.0000    0.0000    0.0000 C   0  0
    0.0000    0.0000    0.0000 C   0  0
    0.0000    0.0000    0.0000 C   0  0
    0.0000    0.0000    0.0000 Cl  0  0
    0.0000    0.0000    0.0000 N   0  0
    0.0000    0.0000    0.0000 C   0  0
    0.0000    0.0000    0.0000 O   0  0
    0.0000    0.0000    0.0000 N   0  0
    0.0000    0.0000    0.0000 C   0  0
    0.0000    0.0000    0.0000 C   0  0
  1  6  1  0
  1  2  2  3
  2  3  1  0
  2  8  1  0
  3  4  2  3
  4  5  1  0
  5  6  2  3
  5  7  1  0
  8  9  1  0
  9 10  2  0
  9 11  1  0
 11 12  1  0
 11 13  1  0
M  END
> <Name>
Monuron

> <CAS>
000150-68-5

> <VED1>
3.553

> <nHAcc>
3

> <MAXDP>
4.179

> <CIC0>
2.858

> <Log Koc Exp>
1.95

> <Log Koc Pred>
2.03

> <Hat>
0.021

> <Hat Cutoff>
0.161

> <ID Model>
264

> <Smiles>
c1c(ccc(c1)Cl)NC(=O)N(C)C

$$$$
4-Methoxyphenol
  SciTegic03251110552D

  9  9  0  0  0  0            999 V2000
    0.0000    0.0000    0.0000 O   0  0
    0.0000    0.0000    0.0000 C   0  0
    0.0000    0.0000    0.0000 C   0  0
    0.0000    0.0000    0.0000 C   0  0
    0.0000    0.0000    0.0000 C   0  0
    0.0000    0.0000    0.0000 C   0  0
    0.0000    0.0000    0.0000 C   0  0
    0.0000    0.0000    0.0000 O   0  0
    0.0000    0.0000    0.0000 C   0  0
  1  2  1  0
  2  7  1  0
  2  3  2  3
  3  4  1  0
  4  5  2  3
  5  6  1  0
  5  8  1  0
  6  7  2  3
  8  9  1  0
M  END
> <Name>
4-Methoxyphenol

> <CAS>
000150-76-5

> <VED1>
2.956

> <nHAcc>
2

> <MAXDP>
2.797

> <CIC0>
2.685

> <Log Koc Exp>
1.75

> <Log Koc Pred>
1.6

> <Hat>
0.026

> <Hat Cutoff>
0.161

> <ID Model>
265

> <Smiles>
Oc1ccc(cc1)OC

$$$$
Aziridine
  SciTegic03251110552D

  3  3  0  0  0  0            999 V2000
    0.0000    0.0000    0.0000 N   0  0
    0.0000    0.0000    0.0000 C   0  0
    0.0000    0.0000    0.0000 C   0  0
  1  3  1  0
  1  2  1  0
  2  3  1  0
M  END
> <Name>
Aziridine

> <CAS>
000151-56-4

> <VED1>
1.732

> <nHAcc>
1

> <MAXDP>
0.5

> <CIC0>
1.701

> <Log Koc Exp>
0.78

> <Log Koc Pred>
0.4

> <Hat>
0.107

> <Hat Cutoff>
0.161

> <ID Model>
266

> <Smiles>
N1CC1

$$$$
trans-1,2-Dichloroethene
  SciTegic03251110552D

  4  3  0  0  0  0            999 V2000
    0.0000    0.0000    0.0000 C   0  0
    0.0000    0.0000    0.0000 C   0  0
    0.0000    0.0000    0.0000 Cl  0  0
    0.0000    0.0000    0.0000 Cl  0  0
  1  2  2  3
  1  4  1  0
  2  3  1  0
M  END
> <Name>
trans-1,2-Dichloroethene

> <CAS>
000156-60-5

> <VED1>
1.974

> <nHAcc>
0

> <MAXDP>
0.762

> <CIC0>
1

> <Log Koc Exp>
1.77

> <Log Koc Pred>
1.39

> <Hat>
0.088

> <Hat Cutoff>
0.161

> <ID Model>
267

> <Smiles>
C(=CCl)Cl

$$$$
Dibenzo[a,i]pyrene
  SciTegic03251110552D

 24 29  0  0  0  0            999 V2000
    0.0000    0.0000    0.0000 C   0  0
    0.0000    0.0000    0.0000 C   0  0
    0.0000    0.0000    0.0000 C   0  0
    0.0000    0.0000    0.0000 C   0  0
    0.0000    0.0000    0.0000 C   0  0
    0.0000    0.0000    0.0000 C   0  0
    0.0000    0.0000    0.0000 C   0  0
    0.0000    0.0000    0.0000 C   0  0
    0.0000    0.0000    0.0000 C   0  0
    0.0000    0.0000    0.0000 C   0  0
    0.0000    0.0000    0.0000 C   0  0
    0.0000    0.0000    0.0000 C   0  0
    0.0000    0.0000    0.0000 C   0  0
    0.0000    0.0000    0.0000 C   0  0
    0.0000    0.0000    0.0000 C   0  0
    0.0000    0.0000    0.0000 C   0  0
    0.0000    0.0000    0.0000 C   0  0
    0.0000    0.0000    0.0000 C   0  0
    0.0000    0.0000    0.0000 C   0  0
    0.0000    0.0000    0.0000 C   0  0
    0.0000    0.0000    0.0000 C   0  0
    0.0000    0.0000    0.0000 C   0  0
    0.0000    0.0000    0.0000 C   0  0
    0.0000    0.0000    0.0000 C   0  0
  1  6  1  0
  1  2  2  3
  2  3  1  0
  3  4  2  3
  4 10  1  0
  4  5  1  0
  5  6  2  3
  5  7  1  0
  7  8  2  3
  8 17  1  0
  8  9  1  0
  9 14  1  0
  9 10  2  3
 10 11  1  0
 11 12  2  3
 12 13  1  0
 13 20  1  0
 13 14  2  3
 14 15  1  0
 15 16  1  0
 15 18  2  3
 16 17  2  3
 18 19  1  0
 19 24  1  0
 19 20  2  3
 20 21  1  0
 21 22  2  3
 22 23  1  0
 23 24  2  3
M  END
> <Name>
Dibenzo[a,i]pyrene

> <CAS>
000189-55-9

> <VED1>
4.83

> <nHAcc>
0

> <MAXDP>
0.325

> <CIC0>
4.298

> <Log Koc Exp>
5.71

> <Log Koc Pred>
6.44

> <Hat>
0.157

> <Hat Cutoff>
0.161

> <ID Model>
268

> <Smiles>
c1ccc2c(c1)cc1c3c2ccc2c3c(cc1)cc1c2cccc1

$$$$
Benzo[g,h,i]perylene
  SciTegic03251110552D

 22 27  0  0  0  0            999 V2000
    0.0000    0.0000    0.0000 C   0  0
    0.0000    0.0000    0.0000 C   0  0
    0.0000    0.0000    0.0000 C   0  0
    0.0000    0.0000    0.0000 C   0  0
    0.0000    0.0000    0.0000 C   0  0
    0.0000    0.0000    0.0000 C   0  0
    0.0000    0.0000    0.0000 C   0  0
    0.0000    0.0000    0.0000 C   0  0
    0.0000    0.0000    0.0000 C   0  0
    0.0000    0.0000    0.0000 C   0  0
    0.0000    0.0000    0.0000 C   0  0
    0.0000    0.0000    0.0000 C   0  0
    0.0000    0.0000    0.0000 C   0  0
    0.0000    0.0000    0.0000 C   0  0
    0.0000    0.0000    0.0000 C   0  0
    0.0000    0.0000    0.0000 C   0  0
    0.0000    0.0000    0.0000 C   0  0
    0.0000    0.0000    0.0000 C   0  0
    0.0000    0.0000    0.0000 C   0  0
    0.0000    0.0000    0.0000 C   0  0
    0.0000    0.0000    0.0000 C   0  0
    0.0000    0.0000    0.0000 C   0  0
  1  6  1  0
  1 10  1  0
  1  2  2  3
  2  3  1  0
  3  4  2  3
  4  5  1  0
  5 16  1  0
  5  6  2  3
  6  7  1  0
  7 14  1  0
  7  8  2  3
  8  9  1  0
  8 11  1  0
  9 10  2  3
 11 12  2  3
 12 13  1  0
 13 22  1  0
 13 14  2  3
 14 15  1  0
 15 20  1  0
 15 16  2  3
 16 17  1  0
 17 18  2  3
 18 19  1  0
 19 20  2  3
 20 21  1  0
 21 22  2  3
M  END
> <Name>
Benzo[g,h,i]perylene

> <CAS>
000191-24-2

> <VED1>
4.648

> <nHAcc>
0

> <MAXDP>
0.269

> <CIC0>
4.151

> <Log Koc Exp>
5.38

> <Log Koc Pred>
6.12

> <Hat>
0.139

> <Hat Cutoff>
0.161

> <ID Model>
269

> <Smiles>
c12cccc3c1c1c(cc2)ccc2c1c1c3cccc1cc2

$$$$
Benzo[e]pyrene
  SciTegic03251110552D

 20 24  0  0  0  0            999 V2000
    0.0000    0.0000    0.0000 C   0  0
    0.0000    0.0000    0.0000 C   0  0
    0.0000    0.0000    0.0000 C   0  0
    0.0000    0.0000    0.0000 C   0  0
    0.0000    0.0000    0.0000 C   0  0
    0.0000    0.0000    0.0000 C   0  0
    0.0000    0.0000    0.0000 C   0  0
    0.0000    0.0000    0.0000 C   0  0
    0.0000    0.0000    0.0000 C   0  0
    0.0000    0.0000    0.0000 C   0  0
    0.0000    0.0000    0.0000 C   0  0
    0.0000    0.0000    0.0000 C   0  0
    0.0000    0.0000    0.0000 C   0  0
    0.0000    0.0000    0.0000 C   0  0
    0.0000    0.0000    0.0000 C   0  0
    0.0000    0.0000    0.0000 C   0  0
    0.0000    0.0000    0.0000 C   0  0
    0.0000    0.0000    0.0000 C   0  0
    0.0000    0.0000    0.0000 C   0  0
    0.0000    0.0000    0.0000 C   0  0
  1 17  1  0
  1  2  2  3
  2  3  1  0
  3  4  2  3
  4 16  1  0
  4  5  1  0
  5 20  1  0
  5  6  2  3
  6 11  1  0
  6  7  1  0
  7  8  1  0
  7 18  2  3
  8  9  2  3
  9 10  1  0
 10 15  1  0
 10 11  2  3
 11 12  1  0
 12 13  2  3
 12 16  1  0
 13 14  1  0
 14 15  2  3
 16 17  2  3
 18 19  1  0
 19 20  2  3
M  END
> <Name>
Benzo[e]pyrene

> <CAS>
000192-97-2

> <VED1>
4.426

> <nHAcc>
0

> <MAXDP>
0.247

> <CIC0>
4.046

> <Log Koc Exp>
6.07

> <Log Koc Pred>
5.7

> <Hat>
0.119

> <Hat Cutoff>
0.161

> <ID Model>
270

> <Smiles>
c1ccc2c3c4c(ccc5c4c(ccc5)c2c1)ccc3

$$$$
Indeno[1,2,3-cd]pyrene
  SciTegic03251110552D

 22 27  0  0  0  0            999 V2000
    0.0000    0.0000    0.0000 C   0  0
    0.0000    0.0000    0.0000 C   0  0
    0.0000    0.0000    0.0000 C   0  0
    0.0000    0.0000    0.0000 C   0  0
    0.0000    0.0000    0.0000 C   0  0
    0.0000    0.0000    0.0000 C   0  0
    0.0000    0.0000    0.0000 C   0  0
    0.0000    0.0000    0.0000 C   0  0
    0.0000    0.0000    0.0000 C   0  0
    0.0000    0.0000    0.0000 C   0  0
    0.0000    0.0000    0.0000 C   0  0
    0.0000    0.0000    0.0000 C   0  0
    0.0000    0.0000    0.0000 C   0  0
    0.0000    0.0000    0.0000 C   0  0
    0.0000    0.0000    0.0000 C   0  0
    0.0000    0.0000    0.0000 C   0  0
    0.0000    0.0000    0.0000 C   0  0
    0.0000    0.0000    0.0000 C   0  0
    0.0000    0.0000    0.0000 C   0  0
    0.0000    0.0000    0.0000 C   0  0
    0.0000    0.0000    0.0000 C   0  0
    0.0000    0.0000    0.0000 C   0  0
  1  6  1  0
  1  2  2  3
  2 16  1  0
  2  3  1  0
  3 13  1  0
  3  4  2  3
  4 10  1  0
  4  5  1  0
  5  6  2  3
  5  7  1  0
  7  8  2  3
  8  9  1  0
  9 18  1  0
  9 10  2  3
 10 11  1  0
 11 12  2  3
 11 17  1  0
 12 13  1  0
 13 14  2  3
 14 15  1  0
 15 16  2  3
 17 22  1  0
 17 18  2  3
 18 19  1  0
 19 20  2  3
 20 21  1  0
 21 22  2  3
M  END
> <Name>
Indeno[1,2,3-cd]pyrene

> <CAS>
000193-39-5

> <VED1>
4.638

> <nHAcc>
0

> <MAXDP>
0.374

> <CIC0>
4.151

> <Log Koc Exp>
6.33

> <Log Koc Pred>
6.07

> <Hat>
0.134

> <Hat Cutoff>
0.161

> <ID Model>
271

> <Smiles>
c1c2c3c4c(c1)ccc1c4c(cc3ccc2)c2c1cccc2

$$$$
7H-Dibenzo[c,g]carbazole
  SciTegic03251110552D

 22 26  0  0  0  0            999 V2000
    0.0000    0.0000    0.0000 C   0  0
    0.0000    0.0000    0.0000 C   0  0
    0.0000    0.0000    0.0000 C   0  0
    0.0000    0.0000    0.0000 C   0  0
    0.0000    0.0000    0.0000 C   0  0
    0.0000    0.0000    0.0000 C   0  0
    0.0000    0.0000    0.0000 C   0  0
    0.0000    0.0000    0.0000 C   0  0
    0.0000    0.0000    0.0000 C   0  0
    0.0000    0.0000    0.0000 C   0  0
    0.0000    0.0000    0.0000 N   0  0
    0.0000    0.0000    0.0000 H   0  0
    0.0000    0.0000    0.0000 C   0  0
    0.0000    0.0000    0.0000 C   0  0
    0.0000    0.0000    0.0000 C   0  0
    0.0000    0.0000    0.0000 C   0  0
    0.0000    0.0000    0.0000 C   0  0
    0.0000    0.0000    0.0000 C   0  0
    0.0000    0.0000    0.0000 C   0  0
    0.0000    0.0000    0.0000 C   0  0
    0.0000    0.0000    0.0000 C   0  0
    0.0000    0.0000    0.0000 C   0  0
  1  6  1  0
  1  2  2  3
  2  3  1  0
  3 10  1  0
  3  4  2  3
  4  5  1  0
  4  7  1  0
  5  6  2  3
  7 14  1  0
  7  8  2  3
  8  9  1  0
  8 11  1  0
  9 10  2  3
 11 12  1  0
 11 13  1  0
 13 18  1  0
 13 14  2  3
 14 15  1  0
 15 22  1  0
 15 16  2  3
 16 17  1  0
 16 19  1  0
 17 18  2  3
 19 20  2  3
 20 21  1  0
 21 22  2  3
M  END
> <Name>
7H-Dibenzo[c,g]carbazole

> <CAS>
000194-59-2

> <VED1>
4.526

> <nHAcc>
0

> <MAXDP>
1.062

> <CIC0>
3.957

> <Log Koc Exp>
6.02

> <Log Koc Pred>
5.69

> <Hat>
0.1

> <Hat Cutoff>
0.161

> <ID Model>
272

> <Smiles>
c1cc2c(cc1)c1c(cc2)[nH]c2c1c1c(cc2)cccc1

$$$$
Perylene
  SciTegic03251110552D

 20 24  0  0  0  0            999 V2000
    0.0000    0.0000    0.0000 C   0  0
    0.0000    0.0000    0.0000 C   0  0
    0.0000    0.0000    0.0000 C   0  0
    0.0000    0.0000    0.0000 C   0  0
    0.0000    0.0000    0.0000 C   0  0
    0.0000    0.0000    0.0000 C   0  0
    0.0000    0.0000    0.0000 C   0  0
    0.0000    0.0000    0.0000 C   0  0
    0.0000    0.0000    0.0000 C   0  0
    0.0000    0.0000    0.0000 C   0  0
    0.0000    0.0000    0.0000 C   0  0
    0.0000    0.0000    0.0000 C   0  0
    0.0000    0.0000    0.0000 C   0  0
    0.0000    0.0000    0.0000 C   0  0
    0.0000    0.0000    0.0000 C   0  0
    0.0000    0.0000    0.0000 C   0  0
    0.0000    0.0000    0.0000 C   0  0
    0.0000    0.0000    0.0000 C   0  0
    0.0000    0.0000    0.0000 C   0  0
    0.0000    0.0000    0.0000 C   0  0
  1 17  1  0
  1  2  2  3
  2  3  1  0
  3 12  2  3
  3  4  1  0
  4 20  1  0
  4  5  2  3
  5 10  1  0
  5  6  1  0
  6  7  1  0
  6 18  2  3
  7  8  2  3
  8  9  1  0
  9 10  2  3
 10 11  1  0
 11 16  2  3
 11 12  1  0
 12 13  1  0
 13 14  1  0
 13 17  2  3
 14 15  2  3
 15 16  1  0
 18 19  1  0
 19 20  2  3
M  END
> <Name>
Perylene

> <CAS>
000198-55-0

> <VED1>
4.429

> <nHAcc>
0

> <MAXDP>
0.247

> <CIC0>
4.046

> <Log Koc Exp>
5.49

> <Log Koc Pred>
5.71

> <Hat>
0.12

> <Hat Cutoff>
0.161

> <ID Model>
273

> <Smiles>
c1cc2c3c4c(cccc4c4c2c(ccc4)c1)ccc3

$$$$
Benzo[b]fluoranthene
  SciTegic03251110552D

 20 24  0  0  0  0            999 V2000
    0.0000    0.0000    0.0000 C   0  0
    0.0000    0.0000    0.0000 C   0  0
    0.0000    0.0000    0.0000 C   0  0
    0.0000    0.0000    0.0000 C   0  0
    0.0000    0.0000    0.0000 C   0  0
    0.0000    0.0000    0.0000 C   0  0
    0.0000    0.0000    0.0000 C   0  0
    0.0000    0.0000    0.0000 C   0  0
    0.0000    0.0000    0.0000 C   0  0
    0.0000    0.0000    0.0000 C   0  0
    0.0000    0.0000    0.0000 C   0  0
    0.0000    0.0000    0.0000 C   0  0
    0.0000    0.0000    0.0000 C   0  0
    0.0000    0.0000    0.0000 C   0  0
    0.0000    0.0000    0.0000 C   0  0
    0.0000    0.0000    0.0000 C   0  0
    0.0000    0.0000    0.0000 C   0  0
    0.0000    0.0000    0.0000 C   0  0
    0.0000    0.0000    0.0000 C   0  0
    0.0000    0.0000    0.0000 C   0  0
  1 20  1  0
  1  2  2  3
  2  3  1  0
  3  8  1  0
  3  4  2  3
  4  5  1  0
  4 19  1  0
  5  6  2  3
  6 14  1  0
  6  7  1  0
  7 12  1  0
  7  8  2  3
  8  9  1  0
  9 10  2  3
 10 11  1  0
 11 12  2  3
 12 13  1  0
 13 18  1  0
 13 14  2  3
 14 15  1  0
 15 16  2  3
 16 17  1  0
 17 18  2  3
 19 20  2  3
M  END
> <Name>
Benzo[b]fluoranthene

> <CAS>
000205-99-2

> <VED1>
4.417

> <nHAcc>
0

> <MAXDP>
0.34

> <CIC0>
4.046

> <Log Koc Exp>
5.36

> <Log Koc Pred>
5.65

> <Hat>
0.115

> <Hat Cutoff>
0.161

> <ID Model>
274

> <Smiles>
c1cc2c(cc3c4c2cccc4c2c3cccc2)cc1

$$$$
Fluoranthene
  SciTegic03251110552D

 16 19  0  0  0  0            999 V2000
    0.0000    0.0000    0.0000 C   0  0
    0.0000    0.0000    0.0000 C   0  0
    0.0000    0.0000    0.0000 C   0  0
    0.0000    0.0000    0.0000 C   0  0
    0.0000    0.0000    0.0000 C   0  0
    0.0000    0.0000    0.0000 C   0  0
    0.0000    0.0000    0.0000 C   0  0
    0.0000    0.0000    0.0000 C   0  0
    0.0000    0.0000    0.0000 C   0  0
    0.0000    0.0000    0.0000 C   0  0
    0.0000    0.0000    0.0000 C   0  0
    0.0000    0.0000    0.0000 C   0  0
    0.0000    0.0000    0.0000 C   0  0
    0.0000    0.0000    0.0000 C   0  0
    0.0000    0.0000    0.0000 C   0  0
    0.0000    0.0000    0.0000 C   0  0
  1  6  1  0
  1  2  2  3
  2  3  1  0
  3  4  2  3
  4  5  1  0
  5  9  1  0
  5  6  2  3
  6  7  1  0
  7 16  1  0
  7  8  2  3
  8 13  1  0
  8  9  1  0
  9 10  2  3
 10 11  1  0
 11 12  2  3
 12 13  1  0
 13 14  2  3
 14 15  1  0
 15 16  2  3
M  END
> <Name>
Fluoranthene

> <CAS>
000206-44-0

> <VED1>
3.959

> <nHAcc>
0

> <MAXDP>
0.22

> <CIC0>
3.739

> <Log Koc Exp>
4.71

> <Log Koc Pred>
4.83

> <Hat>
0.086

> <Hat Cutoff>
0.161

> <ID Model>
275

> <Smiles>
c1cccc2c1c1c3c2cccc3ccc1

$$$$
Benzo[k]fluoranthene
  SciTegic03251110552D

 20 24  0  0  0  0            999 V2000
    0.0000    0.0000    0.0000 C   0  0
    0.0000    0.0000    0.0000 C   0  0
    0.0000    0.0000    0.0000 C   0  0
    0.0000    0.0000    0.0000 C   0  0
    0.0000    0.0000    0.0000 C   0  0
    0.0000    0.0000    0.0000 C   0  0
    0.0000    0.0000    0.0000 C   0  0
    0.0000    0.0000    0.0000 C   0  0
    0.0000    0.0000    0.0000 C   0  0
    0.0000    0.0000    0.0000 C   0  0
    0.0000    0.0000    0.0000 C   0  0
    0.0000    0.0000    0.0000 C   0  0
    0.0000    0.0000    0.0000 C   0  0
    0.0000    0.0000    0.0000 C   0  0
    0.0000    0.0000    0.0000 C   0  0
    0.0000    0.0000    0.0000 C   0  0
    0.0000    0.0000    0.0000 C   0  0
    0.0000    0.0000    0.0000 C   0  0
    0.0000    0.0000    0.0000 C   0  0
    0.0000    0.0000    0.0000 C   0  0
  1  6  1  0
  1  2  2  3
  2  3  1  0
  3  4  2  3
  4  5  1  0
  5 10  1  0
  5  6  2  3
  6  7  1  0
  7  8  2  3
  8 13  1  0
  8  9  1  0
  9 10  2  3
  9 11  1  0
 11 20  1  0
 11 12  2  3
 12 17  1  0
 12 13  1  0
 13 14  2  3
 14 15  1  0
 15 16  2  3
 16 17  1  0
 17 18  2  3
 18 19  1  0
 19 20  2  3
M  END
> <Name>
Benzo[k]fluoranthene

> <CAS>
000207-08-9

> <VED1>
4.418

> <nHAcc>
0

> <MAXDP>
0.333

> <CIC0>
4.046

> <Log Koc Exp>
4.99

> <Log Koc Pred>
5.66

> <Hat>
0.115

> <Hat Cutoff>
0.161

> <ID Model>
276

> <Smiles>
c1cccc2c1cc1c(c2)c2c3c1cccc3ccc2

$$$$
Acenaphthylene
  SciTegic03251110552D

 12 14  0  0  0  0            999 V2000
    0.0000    0.0000    0.0000 C   0  0
    0.0000    0.0000    0.0000 C   0  0
    0.0000    0.0000    0.0000 C   0  0
    0.0000    0.0000    0.0000 C   0  0
    0.0000    0.0000    0.0000 C   0  0
    0.0000    0.0000    0.0000 C   0  0
    0.0000    0.0000    0.0000 C   0  0
    0.0000    0.0000    0.0000 C   0  0
    0.0000    0.0000    0.0000 C   0  0
    0.0000    0.0000    0.0000 C   0  0
    0.0000    0.0000    0.0000 C   0  0
    0.0000    0.0000    0.0000 C   0  0
  1  9  1  0
  1  2  2  3
  2  3  1  0
  3 12  1  0
  3  4  2  3
  4  9  1  0
  4  5  1  0
  5  6  1  0
  5 10  2  3
  6  7  2  3
  7  8  1  0
  8  9  2  3
 10 11  1  0
 11 12  2  3
M  END
> <Name>
Acenaphthylene

> <CAS>
000208-96-8

> <VED1>
3.442

> <nHAcc>
0

> <MAXDP>
0.178

> <CIC0>
3.351

> <Log Koc Exp>
3.75

> <Log Koc Pred>
3.88

> <Hat>
0.065

> <Hat Cutoff>
0.161

> <ID Model>
277

> <Smiles>
C1=Cc2c3c(cccc13)ccc2

$$$$
Benzo[a]fluorene
  SciTegic03251110552D

 17 20  0  0  0  0            999 V2000
    0.0000    0.0000    0.0000 C   0  0
    0.0000    0.0000    0.0000 C   0  0
    0.0000    0.0000    0.0000 C   0  0
    0.0000    0.0000    0.0000 C   0  0
    0.0000    0.0000    0.0000 C   0  0
    0.0000    0.0000    0.0000 C   0  0
    0.0000    0.0000    0.0000 C   0  0
    0.0000    0.0000    0.0000 C   0  0
    0.0000    0.0000    0.0000 C   0  0
    0.0000    0.0000    0.0000 C   0  0
    0.0000    0.0000    0.0000 C   0  0
    0.0000    0.0000    0.0000 C   0  0
    0.0000    0.0000    0.0000 C   0  0
    0.0000    0.0000    0.0000 C   0  0
    0.0000    0.0000    0.0000 C   0  0
    0.0000    0.0000    0.0000 C   0  0
    0.0000    0.0000    0.0000 C   0  0
  1  6  1  0
  1  2  2  3
  2  3  1  0
  3  4  2  3
  4 10  1  0
  4  5  1  0
  5  6  2  3
  5  7  1  0
  7  8  2  3
  8  9  1  0
  9 13  1  0
  9 10  2  3
 10 11  1  0
 11 12  1  0
 12 17  1  0
 12 13  2  3
 13 14  1  0
 14 15  2  3
 15 16  1  0
 16 17  2  3
M  END
> <Name>
Benzo[a]fluorene

> <CAS>
000238-84-6

> <VED1>
4.072

> <nHAcc>
0

> <MAXDP>
0.267

> <CIC0>
3.88

> <Log Koc Exp>
5.46

> <Log Koc Pred>
5

> <Hat>
0.094

> <Hat Cutoff>
0.161

> <ID Model>
281

> <Smiles>
c1ccc2c(c1)ccc1c2Cc2c1cccc2

$$$$
13H-Dibenzo[a,i]carbazole
  SciTegic03251110552D

 22 26  0  0  0  0            999 V2000
    0.0000    0.0000    0.0000 C   0  0
    0.0000    0.0000    0.0000 C   0  0
    0.0000    0.0000    0.0000 C   0  0
    0.0000    0.0000    0.0000 C   0  0
    0.0000    0.0000    0.0000 C   0  0
    0.0000    0.0000    0.0000 C   0  0
    0.0000    0.0000    0.0000 C   0  0
    0.0000    0.0000    0.0000 C   0  0
    0.0000    0.0000    0.0000 C   0  0
    0.0000    0.0000    0.0000 C   0  0
    0.0000    0.0000    0.0000 N   0  0
    0.0000    0.0000    0.0000 H   0  0
    0.0000    0.0000    0.0000 C   0  0
    0.0000    0.0000    0.0000 C   0  0
    0.0000    0.0000    0.0000 C   0  0
    0.0000    0.0000    0.0000 C   0  0
    0.0000    0.0000    0.0000 C   0  0
    0.0000    0.0000    0.0000 C   0  0
    0.0000    0.0000    0.0000 C   0  0
    0.0000    0.0000    0.0000 C   0  0
    0.0000    0.0000    0.0000 C   0  0
    0.0000    0.0000    0.0000 C   0  0
  1  6  1  0
  1  2  2  3
  2  3  1  0
  3  4  2  3
  4 10  1  0
  4  5  1  0
  5  6  2  3
  5  7  1  0
  7  8  2  3
  8  9  1  0
  9 14  1  0
  9 10  2  3
 10 11  1  0
 11 12  1  0
 11 13  1  0
 13 18  1  0
 13 14  2  3
 14 15  1  0
 15 16  2  3
 16 17  1  0
 17 22  1  0
 17 18  2  3
 18 19  1  0
 19 20  2  3
 20 21  1  0
 21 22  2  3
M  END
> <Name>
13H-Dibenzo[a,i]carbazole

> <CAS>
000239-64-5

> <VED1>
4.521

> <nHAcc>
0

> <MAXDP>
1.164

> <CIC0>
3.957

> <Log Koc Exp>
6.02

> <Log Koc Pred>
5.65

> <Hat>
0.097

> <Hat Cutoff>
0.161

> <ID Model>
282

> <Smiles>
c1ccc2c(c1)ccc1c2[nH]c2c1ccc1c2cccc1

$$$$
Acridine
  SciTegic03251110552D

 14 16  0  0  0  0            999 V2000
    0.0000    0.0000    0.0000 N   0  0
    0.0000    0.0000    0.0000 C   0  0
    0.0000    0.0000    0.0000 C   0  0
    0.0000    0.0000    0.0000 C   0  0
    0.0000    0.0000    0.0000 C   0  0
    0.0000    0.0000    0.0000 C   0  0
    0.0000    0.0000    0.0000 C   0  0
    0.0000    0.0000    0.0000 C   0  0
    0.0000    0.0000    0.0000 C   0  0
    0.0000    0.0000    0.0000 C   0  0
    0.0000    0.0000    0.0000 C   0  0
    0.0000    0.0000    0.0000 C   0  0
    0.0000    0.0000    0.0000 C   0  0
    0.0000    0.0000    0.0000 C   0  0
  1 14  1  0
  1  2  2  3
  2  7  1  0
  2  3  1  0
  3  4  1  0
  3  8  2  3
  4  5  2  3
  5  6  1  0
  6  7  2  3
  8  9  1  0
  9 14  1  0
  9 10  2  3
 10 11  1  0
 11 12  2  3
 12 13  1  0
 13 14  2  3
M  END
> <Name>
Acridine

> <CAS>
000260-94-6

> <VED1>
3.702

> <nHAcc>
1

> <MAXDP>
1.578

> <CIC0>
3.332

> <Log Koc Exp>
4.11

> <Log Koc Pred>
3.67

> <Hat>
0.03

> <Hat Cutoff>
0.161

> <ID Model>
283

> <Smiles>
n1c2c(cccc2)cc2ccccc12

$$$$
Parathion methyl
  SciTegic03251110552D

 16 16  0  0  0  0            999 V2000
    0.0000    0.0000    0.0000 C   0  0
    0.0000    0.0000    0.0000 C   0  0
    0.0000    0.0000    0.0000 O   0  0
    0.0000    0.0000    0.0000 P   0  0
    0.0000    0.0000    0.0000 S   0  0
    0.0000    0.0000    0.0000 O   0  0
    0.0000    0.0000    0.0000 C   0  0
    0.0000    0.0000    0.0000 O   0  0
    0.0000    0.0000    0.0000 C   0  0
    0.0000    0.0000    0.0000 C   0  0
    0.0000    0.0000    0.0000 C   0  0
    0.0000    0.0000    0.0000 C   0  0
    0.0000    0.0000    0.0000 C   0  0
    0.0000    0.0000    0.0000 N   0  0
    0.0000    0.0000    0.0000 O   0  0
    0.0000    0.0000    0.0000 O   0  0
  1 13  1  0
  1  2  2  3
  2  3  1  0
  2 10  1  0
  3  4  1  0
  4  5  2  0
  4  6  1  0
  4  8  1  0
  6  7  1  0
  8  9  1  0
 10 11  2  3
 11 12  1  0
 12 13  2  3
 12 14  1  0
 14 15  1  0
 14 16  1  0
M  END
> <Name>
Parathion methyl

> <CAS>
000298-00-0

> <VED1>
3.936

> <nHAcc>
5

> <MAXDP>
3.412

> <CIC0>
2.647

> <Log Koc Exp>
3

> <Log Koc Pred>
2.47

> <Hat>
0.032

> <Hat Cutoff>
0.161

> <ID Model>
284

> <Smiles>
c1c(OP(=S)(OC)OC)ccc(c1)N(O)O

$$$$
Disulfoton
  SciTegic03251110552D

 14 13  0  0  0  0            999 V2000
    0.0000    0.0000    0.0000 C   0  0
    0.0000    0.0000    0.0000 S   0  0
    0.0000    0.0000    0.0000 C   0  0
    0.0000    0.0000    0.0000 C   0  0
    0.0000    0.0000    0.0000 S   0  0
    0.0000    0.0000    0.0000 P   0  0
    0.0000    0.0000    0.0000 S   0  0
    0.0000    0.0000    0.0000 O   0  0
    0.0000    0.0000    0.0000 C   0  0
    0.0000    0.0000    0.0000 C   0  0
    0.0000    0.0000    0.0000 O   0  0
    0.0000    0.0000    0.0000 C   0  0
    0.0000    0.0000    0.0000 C   0  0
    0.0000    0.0000    0.0000 C   0  0
  1  2  1  0
  1 14  1  0
  2  3  1  0
  3  4  1  0
  4  5  1  0
  5  6  1  0
  6  7  2  0
  6  8  1  0
  6 11  1  0
  8  9  1  0
  9 10  1  0
 11 12  1  0
 12 13  1  0
M  END
> <Name>
Disulfoton

> <CAS>
000298-04-4

> <VED1>
3.668

> <nHAcc>
2

> <MAXDP>
2.007

> <CIC0>
3.378

> <Log Koc Exp>
3.13

> <Log Koc Pred>
3.11

> <Hat>
0.025

> <Hat Cutoff>
0.161

> <ID Model>
286

> <Smiles>
C(SCCSP(=S)(OCC)OCC)C

$$$$
Oxydemeton-Methyl
  SciTegic03251110552D

 11 10  0  0  0  0            999 V2000
    0.0000    0.0000    0.0000 C   0  0
    0.0000    0.0000    0.0000 P   0  0
    0.0000    0.0000    0.0000 O   0  0
    0.0000    0.0000    0.0000 C   0  0
    0.0000    0.0000    0.0000 S   0  0
    0.0000    0.0000    0.0000 C   0  0
    0.0000    0.0000    0.0000 C   0  0
    0.0000    0.0000    0.0000 S   0  0
    0.0000    0.0000    0.0000 O   0  0
    0.0000    0.0000    0.0000 C   0  0
    0.0000    0.0000    0.0000 C   0  0
  1  2  1  0
  2  3  2  0
  2  4  1  0
  2  5  1  0
  5  6  1  0
  6  7  1  0
  7  8  1  0
  8  9  2  0
  8 10  1  0
 10 11  1  0
M  END
> <Name>
Oxydemeton-Methyl

> <CAS>
000301-12-2

> <VED1>
3.27

> <nHAcc>
2

> <MAXDP>
4.148

> <CIC0>
3.004

> <Log Koc Exp>
1.05

> <Log Koc Pred>
1.06

> <Hat>
0.041

> <Hat Cutoff>
0.161

> <ID Model>
288

> <Smiles>
CP(=O)(C)SCC[S@](=O)CC

$$$$
Aldrin
  SciTegic03251110552D

 22 25  0  0  0  0            999 V2000
    0.0000    0.0000    0.0000 C   0  0
    0.0000    0.0000    0.0000 C   0  0
    0.0000    0.0000    0.0000 C   0  0
    0.0000    0.0000    0.0000 C   0  0
    0.0000    0.0000    0.0000 H   0  0
    0.0000    0.0000    0.0000 C   0  0
    0.0000    0.0000    0.0000 H   0  0
    0.0000    0.0000    0.0000 C   0  0
    0.0000    0.0000    0.0000 C   0  0
    0.0000    0.0000    0.0000 Cl  0  0
    0.0000    0.0000    0.0000 Cl  0  0
    0.0000    0.0000    0.0000 Cl  0  0
    0.0000    0.0000    0.0000 C   0  0
    0.0000    0.0000    0.0000 H   0  0
    0.0000    0.0000    0.0000 C   0  0
    0.0000    0.0000    0.0000 C   0  0
    0.0000    0.0000    0.0000 C   0  0
    0.0000    0.0000    0.0000 H   0  0
    0.0000    0.0000    0.0000 C   0  0
    0.0000    0.0000    0.0000 Cl  0  0
    0.0000    0.0000    0.0000 Cl  0  0
    0.0000    0.0000    0.0000 Cl  0  0
  1  8  1  0
  1  2  2  3
  1 22  1  0
  2  3  1  0
  2 21  1  0
  3  9  1  0
  3  4  1  0
  3 20  1  0
  4  5  1  0
  4 17  1  0
  4  6  1  0
  6  7  1  0
  6  8  1  0
  6 13  1  0
  8  9  1  0
  8 12  1  0
  9 10  1  0
  9 11  1  0
 13 14  1  0
 13 19  1  0
 13 15  1  0
 15 16  2  3
 16 17  1  0
 17 18  1  0
 17 19  1  0
M  END
> <Name>
Aldrin

> <CAS>
000309-00-2

> <VED1>
4.188

> <nHAcc>
0

> <MAXDP>
2.651

> <CIC0>
3.174

> <Log Koc Exp>
4.4

> <Log Koc Pred>
4.75

> <Hat>
0.074

> <Hat Cutoff>
0.161

> <ID Model>
289

> <Smiles>
C1(=C([C@@]2([C@H]3[C@@H]([C@]1(C2(Cl)Cl)Cl)[C@@H]1C=C[C@H]3C1)Cl)Cl)Cl

$$$$
Bromacil
  SciTegic03251110552D

 16 16  0  0  0  0            999 V2000
    0.0000    0.0000    0.0000 C   0  0
    0.0000    0.0000    0.0000 C   0  0
    0.0000    0.0000    0.0000 O   0  0
    0.0000    0.0000    0.0000 N   0  0
    0.0000    0.0000    0.0000 C   0  0
    0.0000    0.0000    0.0000 O   0  0
    0.0000    0.0000    0.0000 N   0  0
    0.0000    0.0000    0.0000 H   0  0
    0.0000    0.0000    0.0000 C   0  0
    0.0000    0.0000    0.0000 C   0  0
    0.0000    0.0000    0.0000 C   0  0
    0.0000    0.0000    0.0000 H   0  0
    0.0000    0.0000    0.0000 C   0  0
    0.0000    0.0000    0.0000 C   0  0
    0.0000    0.0000    0.0000 C   0  0
    0.0000    0.0000    0.0000 Br  0  0
  1  9  2  3
  1  2  1  0
  1 16  1  0
  2  3  2  0
  2  4  1  0
  4  5  1  0
  4 11  1  0
  5  6  2  0
  5  7  1  0
  7  8  1  0
  7  9  1  0
  9 10  1  0
 11 12  1  0
 11 13  1  0
 11 14  1  0
 14 15  1  0
M  END
> <Name>
Bromacil

> <CAS>
000314-40-9

> <VED1>
3.684

> <nHAcc>
4

> <MAXDP>
4.707

> <CIC0>
2.986

> <Log Koc Exp>
1.73

> <Log Koc Pred>
1.76

> <Hat>
0.026

> <Hat Cutoff>
0.161

> <ID Model>
290

> <Smiles>
c1(c(=O)n(c(=O)[nH]c1C)[C@@H](C)CC)Br

$$$$
Isocil
  SciTegic03251110552D

 14 14  0  0  0  0            999 V2000
    0.0000    0.0000    0.0000 N   0  0
    0.0000    0.0000    0.0000 H   0  0
    0.0000    0.0000    0.0000 C   0  0
    0.0000    0.0000    0.0000 C   0  0
    0.0000    0.0000    0.0000 C   0  0
    0.0000    0.0000    0.0000 C   0  0
    0.0000    0.0000    0.0000 O   0  0
    0.0000    0.0000    0.0000 N   0  0
    0.0000    0.0000    0.0000 C   0  0
    0.0000    0.0000    0.0000 O   0  0
    0.0000    0.0000    0.0000 C   0  0
    0.0000    0.0000    0.0000 C   0  0
    0.0000    0.0000    0.0000 C   0  0
    0.0000    0.0000    0.0000 Br  0  0
  1  2  1  0
  1  9  1  0
  1  3  1  0
  3  4  1  0
  3  5  2  3
  5  6  1  0
  5 14  1  0
  6  7  2  0
  6  8  1  0
  8  9  1  0
  8 11  1  0
  9 10  2  0
 11 12  1  0
 11 13  1  0
M  END
> <Name>
Isocil

> <CAS>
000314-42-1

> <VED1>
3.554

> <nHAcc>
4

> <MAXDP>
4.548

> <CIC0>
2.752

> <Log Koc Exp>
2.11

> <Log Koc Pred>
1.62

> <Hat>
0.026

> <Hat Cutoff>
0.161

> <ID Model>
291

> <Smiles>
[nH]1c(C)c(c(=O)n(c1=O)C(C)C)Br

$$$$
beta-HCH
  SciTegic03251110552D

 18 18  0  0  0  0            999 V2000
    0.0000    0.0000    0.0000 C   0  0
    0.0000    0.0000    0.0000 H   0  0
    0.0000    0.0000    0.0000 C   0  0
    0.0000    0.0000    0.0000 H   0  0
    0.0000    0.0000    0.0000 C   0  0
    0.0000    0.0000    0.0000 H   0  0
    0.0000    0.0000    0.0000 C   0  0
    0.0000    0.0000    0.0000 H   0  0
    0.0000    0.0000    0.0000 C   0  0
    0.0000    0.0000    0.0000 H   0  0
    0.0000    0.0000    0.0000 C   0  0
    0.0000    0.0000    0.0000 H   0  0
    0.0000    0.0000    0.0000 Cl  0  0
    0.0000    0.0000    0.0000 Cl  0  0
    0.0000    0.0000    0.0000 Cl  0  0
    0.0000    0.0000    0.0000 Cl  0  0
    0.0000    0.0000    0.0000 Cl  0  0
    0.0000    0.0000    0.0000 Cl  0  0
  1  2  1  0
  1 11  1  0
  1  3  1  0
  1 18  1  0
  3  4  1  0
  3  5  1  0
  3 17  1  0
  5  6  1  0
  5  7  1  0
  5 16  1  0
  7  8  1  0
  7  9  1  0
  7 15  1  0
  9 10  1  0
  9 11  1  0
  9 14  1  0
 11 12  1  0
 11 13  1  0
M  END
> <Name>
beta-HCH

> <CAS>
000319-85-7

> <VED1>
3.419

> <nHAcc>
0

> <MAXDP>
1.77

> <CIC0>
2.585

> <Log Koc Exp>
3.36

> <Log Koc Pred>
3.6

> <Hat>
0.037

> <Hat Cutoff>
0.161

> <ID Model>
293

> <Smiles>
[C@@H]1([C@@H]([C@H]([C@@H]([C@H]([C@@H]1Cl)Cl)Cl)Cl)Cl)Cl

$$$$
3-(3-Fluorophenyl)-1,1-dimethylurea
  SciTegic03251110552D

 13 13  0  0  0  0            999 V2000
    0.0000    0.0000    0.0000 C   0  0
    0.0000    0.0000    0.0000 C   0  0
    0.0000    0.0000    0.0000 C   0  0
    0.0000    0.0000    0.0000 C   0  0
    0.0000    0.0000    0.0000 C   0  0
    0.0000    0.0000    0.0000 C   0  0
    0.0000    0.0000    0.0000 N   0  0
    0.0000    0.0000    0.0000 C   0  0
    0.0000    0.0000    0.0000 O   0  0
    0.0000    0.0000    0.0000 N   0  0
    0.0000    0.0000    0.0000 C   0  0
    0.0000    0.0000    0.0000 C   0  0
    0.0000    0.0000    0.0000 F   0  0
  1  6  1  0
  1  2  2  3
  2  3  1  0
  2 13  1  0
  3  4  2  3
  4  5  1  0
  4  7  1  0
  5  6  2  3
  7  8  1  0
  8  9  2  0
  8 10  1  0
 10 11  1  0
 10 12  1  0
M  END
> <Name>
3-(3-Fluorophenyl)-1,1-dimethylurea

> <CAS>
000330-39-2

> <VED1>
3.558

> <nHAcc>
4

> <MAXDP>
4.654

> <CIC0>
2.858

> <Log Koc Exp>
1.73

> <Log Koc Pred>
1.56

> <Hat>
0.028

> <Hat Cutoff>
0.161

> <ID Model>
294

> <Smiles>
c1c(cc(cc1)NC(=O)N(C)C)F

$$$$
Linuron
  SciTegic03251110552D

 15 15  0  0  0  0            999 V2000
    0.0000    0.0000    0.0000 C   0  0
    0.0000    0.0000    0.0000 C   0  0
    0.0000    0.0000    0.0000 C   0  0
    0.0000    0.0000    0.0000 C   0  0
    0.0000    0.0000    0.0000 C   0  0
    0.0000    0.0000    0.0000 C   0  0
    0.0000    0.0000    0.0000 N   0  0
    0.0000    0.0000    0.0000 C   0  0
    0.0000    0.0000    0.0000 O   0  0
    0.0000    0.0000    0.0000 N   0  0
    0.0000    0.0000    0.0000 O   0  0
    0.0000    0.0000    0.0000 C   0  0
    0.0000    0.0000    0.0000 C   0  0
    0.0000    0.0000    0.0000 Cl  0  0
    0.0000    0.0000    0.0000 Cl  0  0
  1  6  1  0
  1  2  2  3
  2  3  1  0
  2 15  1  0
  3  4  2  3
  3 14  1  0
  4  5  1  0
  5  6  2  3
  5  7  1  0
  7  8  1  0
  8  9  2  0
  8 10  1  0
 10 11  1  0
 10 13  1  0
 11 12  1  0
M  END
> <Name>
Linuron

> <CAS>
000330-55-2

> <VED1>
3.816

> <nHAcc>
4

> <MAXDP>
4.353

> <CIC0>
2.71

> <Log Koc Exp>
2.81

> <Log Koc Pred>
2.24

> <Hat>
0.022

> <Hat Cutoff>
0.161

> <ID Model>
296

> <Smiles>
c1c(c(cc(c1)NC(=O)N(OC)C)Cl)Cl

$$$$
Diazinon
  SciTegic03251110552D

 19 19  0  0  0  0            999 V2000
    0.0000    0.0000    0.0000 C   0  0
    0.0000    0.0000    0.0000 C   0  0
    0.0000    0.0000    0.0000 C   0  0
    0.0000    0.0000    0.0000 C   0  0
    0.0000    0.0000    0.0000 N   0  0
    0.0000    0.0000    0.0000 C   0  0
    0.0000    0.0000    0.0000 N   0  0
    0.0000    0.0000    0.0000 C   0  0
    0.0000    0.0000    0.0000 C   0  0
    0.0000    0.0000    0.0000 C   0  0
    0.0000    0.0000    0.0000 O   0  0
    0.0000    0.0000    0.0000 P   0  0
    0.0000    0.0000    0.0000 S   0  0
    0.0000    0.0000    0.0000 O   0  0
    0.0000    0.0000    0.0000 C   0  0
    0.0000    0.0000    0.0000 C   0  0
    0.0000    0.0000    0.0000 O   0  0
    0.0000    0.0000    0.0000 C   0  0
    0.0000    0.0000    0.0000 C   0  0
  1  2  1  0
  2  7  1  0
  2  3  2  3
  3  4  1  0
  4  5  2  3
  4 11  1  0
  5  6  1  0
  6  7  2  3
  6  8  1  0
  8  9  1  0
  8 10  1  0
 11 12  1  0
 12 13  2  0
 12 14  1  0
 12 17  1  0
 14 15  1  0
 15 16  1  0
 17 18  1  0
 18 19  1  0
M  END
> <Name>
Diazinon

> <CAS>
000333-41-5

> <VED1>
4.289

> <nHAcc>
5

> <MAXDP>
2.185

> <CIC0>
3.55

> <Log Koc Exp>
2.75

> <Log Koc Pred>
3.29

> <Hat>
0.069

> <Hat Cutoff>
0.161

> <ID Model>
298

> <Smiles>
Cc1cc(nc(n1)C(C)C)OP(=S)(OCC)OCC

$$$$
Mevinphos(trans)
  SciTegic03251110552D

 14 13  0  0  0  0            999 V2000
    0.0000    0.0000    0.0000 O   0  0
    0.0000    0.0000    0.0000 P   0  0
    0.0000    0.0000    0.0000 O   0  0
    0.0000    0.0000    0.0000 O   0  0
    0.0000    0.0000    0.0000 C   0  0
    0.0000    0.0000    0.0000 O   0  0
    0.0000    0.0000    0.0000 C   0  0
    0.0000    0.0000    0.0000 C   0  0
    0.0000    0.0000    0.0000 C   0  0
    0.0000    0.0000    0.0000 C   0  0
    0.0000    0.0000    0.0000 O   0  0
    0.0000    0.0000    0.0000 O   0  0
    0.0000    0.0000    0.0000 C   0  0
    0.0000    0.0000    0.0000 C   0  0
  1  2  1  0
  1  8  1  0
  2  3  2  0
  2  4  1  0
  2  6  1  0
  4  5  1  0
  6  7  1  0
  8  9  2  3
  8 14  1  0
  9 10  1  0
 10 11  2  0
 10 12  1  0
 12 13  1  0
M  END
> <Name>
Mevinphos(trans)

> <CAS>
000338-45-4

> <VED1>
3.682

> <nHAcc>
6

> <MAXDP>
4.371

> <CIC0>
3.084

> <Log Koc Exp>
1.97

> <Log Koc Pred>
1.16

> <Hat>
0.05

> <Hat Cutoff>
0.161

> <ID Model>
299

> <Smiles>
O(P(=O)(OC)OC)C(=CC(=O)OC)C

$$$$
3-Trifluoromethylacetanilide
  SciTegic03251110552D

 14 14  0  0  0  0            999 V2000
    0.0000    0.0000    0.0000 C   0  0
    0.0000    0.0000    0.0000 C   0  0
    0.0000    0.0000    0.0000 O   0  0
    0.0000    0.0000    0.0000 N   0  0
    0.0000    0.0000    0.0000 C   0  0
    0.0000    0.0000    0.0000 C   0  0
    0.0000    0.0000    0.0000 C   0  0
    0.0000    0.0000    0.0000 C   0  0
    0.0000    0.0000    0.0000 C   0  0
    0.0000    0.0000    0.0000 C   0  0
    0.0000    0.0000    0.0000 C   0  0
    0.0000    0.0000    0.0000 F   0  0
    0.0000    0.0000    0.0000 F   0  0
    0.0000    0.0000    0.0000 F   0  0
  1  2  1  0
  2  3  2  0
  2  4  1  0
  4  5  1  0
  5 10  1  0
  5  6  2  3
  6  7  1  0
  7  8  2  3
  8  9  1  0
  9 10  2  3
  9 11  1  0
 11 12  1  0
 11 13  1  0
 11 14  1  0
M  END
> <Name>
3-Trifluoromethylacetanilide

> <CAS>
000351-36-0

> <VED1>
3.688

> <nHAcc>
5

> <MAXDP>
4.193

> <CIC0>
2.604

> <Log Koc Exp>
1.75

> <Log Koc Pred>
1.72

> <Hat>
0.027

> <Hat Cutoff>
0.161

> <ID Model>
301

> <Smiles>
CC(=O)Nc1cccc(c1)C(F)(F)F

$$$$
4-Fluoroacetanilide
  SciTegic03251110552D

 11 11  0  0  0  0            999 V2000
    0.0000    0.0000    0.0000 C   0  0
    0.0000    0.0000    0.0000 C   0  0
    0.0000    0.0000    0.0000 O   0  0
    0.0000    0.0000    0.0000 N   0  0
    0.0000    0.0000    0.0000 C   0  0
    0.0000    0.0000    0.0000 C   0  0
    0.0000    0.0000    0.0000 C   0  0
    0.0000    0.0000    0.0000 C   0  0
    0.0000    0.0000    0.0000 C   0  0
    0.0000    0.0000    0.0000 C   0  0
    0.0000    0.0000    0.0000 F   0  0
  1  2  1  0
  2  3  2  0
  2  4  1  0
  4  5  1  0
  5 10  1  0
  5  6  2  3
  6  7  1  0
  7  8  2  3
  8  9  1  0
  8 11  1  0
  9 10  2  3
M  END
> <Name>
4-Fluoroacetanilide

> <CAS>
000351-83-7

> <VED1>
3.267

> <nHAcc>
3

> <MAXDP>
4.311

> <CIC0>
2.526

> <Log Koc Exp>
1.48

> <Log Koc Pred>
1.5

> <Hat>
0.031

> <Hat Cutoff>
0.161

> <ID Model>
302

> <Smiles>
CC(=O)Nc1ccc(cc1)F

$$$$
2,2'-Bipyridine
  SciTegic03251110552D

 12 13  0  0  0  0            999 V2000
    0.0000    0.0000    0.0000 C   0  0
    0.0000    0.0000    0.0000 C   0  0
    0.0000    0.0000    0.0000 C   0  0
    0.0000    0.0000    0.0000 C   0  0
    0.0000    0.0000    0.0000 N   0  0
    0.0000    0.0000    0.0000 C   0  0
    0.0000    0.0000    0.0000 C   0  0
    0.0000    0.0000    0.0000 C   0  0
    0.0000    0.0000    0.0000 C   0  0
    0.0000    0.0000    0.0000 C   0  0
    0.0000    0.0000    0.0000 C   0  0
    0.0000    0.0000    0.0000 N   0  0
  1  6  1  0
  1  2  2  3
  2  3  1  0
  3  4  2  3
  4  5  1  0
  4  7  1  0
  5  6  2  3
  7 12  1  0
  7  8  2  3
  8  9  1  0
  9 10  2  3
 10 11  1  0
 11 12  2  3
M  END
> <Name>
2,2'-Bipyridine

> <CAS>
000366-18-7

> <VED1>
3.425

> <nHAcc>
2

> <MAXDP>
1.186

> <CIC0>
2.961

> <Log Koc Exp>
1.6

> <Log Koc Pred>
2.99

> <Hat>
0.037

> <Hat Cutoff>
0.161

> <ID Model>
303

> <Smiles>
c1ccc(nc1)c1ccccn1

$$$$
Indane
  SciTegic03251110552D

  9 10  0  0  0  0            999 V2000
    0.0000    0.0000    0.0000 C   0  0
    0.0000    0.0000    0.0000 C   0  0
    0.0000    0.0000    0.0000 C   0  0
    0.0000    0.0000    0.0000 C   0  0
    0.0000    0.0000    0.0000 C   0  0
    0.0000    0.0000    0.0000 C   0  0
    0.0000    0.0000    0.0000 C   0  0
    0.0000    0.0000    0.0000 C   0  0
    0.0000    0.0000    0.0000 C   0  0
  1  6  1  0
  1  2  2  3
  2  3  1  0
  3  4  2  3
  4  9  1  0
  4  5  1  0
  5  6  2  3
  5  7  1  0
  7  8  1  0
  8  9  1  0
M  END
> <Name>
Indane

> <CAS>
000496-11-7

> <VED1>
2.982

> <nHAcc>
0

> <MAXDP>
0.238

> <CIC0>
3.25

> <Log Koc Exp>
3.63

> <Log Koc Pred>
2.93

> <Hat>
0.071

> <Hat Cutoff>
0.161

> <ID Model>
305

> <Smiles>
c1ccc2c(c1)CCC2

$$$$
Chlorobenzilate
  SciTegic03251110552D

 21 22  0  0  0  0            999 V2000
    0.0000    0.0000    0.0000 C   0  0
    0.0000    0.0000    0.0000 C   0  0
    0.0000    0.0000    0.0000 C   0  0
    0.0000    0.0000    0.0000 C   0  0
    0.0000    0.0000    0.0000 C   0  0
    0.0000    0.0000    0.0000 C   0  0
    0.0000    0.0000    0.0000 C   0  0
    0.0000    0.0000    0.0000 O   0  0
    0.0000    0.0000    0.0000 C   0  0
    0.0000    0.0000    0.0000 C   0  0
    0.0000    0.0000    0.0000 C   0  0
    0.0000    0.0000    0.0000 C   0  0
    0.0000    0.0000    0.0000 C   0  0
    0.0000    0.0000    0.0000 C   0  0
    0.0000    0.0000    0.0000 Cl  0  0
    0.0000    0.0000    0.0000 C   0  0
    0.0000    0.0000    0.0000 O   0  0
    0.0000    0.0000    0.0000 O   0  0
    0.0000    0.0000    0.0000 C   0  0
    0.0000    0.0000    0.0000 C   0  0
    0.0000    0.0000    0.0000 Cl  0  0
  1  6  1  0
  1  2  2  3
  1 21  1  0
  2  3  1  0
  3  4  2  3
  4  5  1  0
  4  7  1  0
  5  6  2  3
  7  8  1  0
  7  9  1  0
  7 16  1  0
  9 14  1  0
  9 10  2  3
 10 11  1  0
 11 12  2  3
 12 13  1  0
 12 15  1  0
 13 14  2  3
 16 17  2  0
 16 18  1  0
 18 19  1  0
 19 20  1  0
M  END
> <Name>
Chlorobenzilate

> <CAS>
000510-15-6

> <VED1>
4.496

> <nHAcc>
3

> <MAXDP>
5.298

> <CIC0>
3.545

> <Log Koc Exp>
3.38

> <Log Koc Pred>
3.44

> <Hat>
0.057

> <Hat Cutoff>
0.161

> <ID Model>
306

> <Smiles>
c1(ccc(cc1)[C@](O)(c1ccc(cc1)Cl)C(=O)OCC)Cl

$$$$
Pentachloroaniline
  SciTegic03251110552D

 12 12  0  0  0  0            999 V2000
    0.0000    0.0000    0.0000 Cl  0  0
    0.0000    0.0000    0.0000 C   0  0
    0.0000    0.0000    0.0000 C   0  0
    0.0000    0.0000    0.0000 Cl  0  0
    0.0000    0.0000    0.0000 C   0  0
    0.0000    0.0000    0.0000 Cl  0  0
    0.0000    0.0000    0.0000 C   0  0
    0.0000    0.0000    0.0000 C   0  0
    0.0000    0.0000    0.0000 C   0  0
    0.0000    0.0000    0.0000 N   0  0
    0.0000    0.0000    0.0000 Cl  0  0
    0.0000    0.0000    0.0000 Cl  0  0
  1  2  1  0
  2  9  1  0
  2  3  2  3
  3  4  1  0
  3  5  1  0
  5  6  1  0
  5  7  2  3
  7  8  1  0
  7 12  1  0
  8  9  2  3
  8 11  1  0
  9 10  1  0
M  END
> <Name>
Pentachloroaniline

> <CAS>
000527-20-8

> <VED1>
3.419

> <nHAcc>
1

> <MAXDP>
1.565

> <CIC0>
2.08

> <Log Koc Exp>
4.62

> <Log Koc Pred>
3.49

> <Hat>
0.053

> <Hat Cutoff>
0.161

> <ID Model>
308

> <Smiles>
Clc1c(Cl)c(Cl)c(c(c1N)Cl)Cl

$$$$
3,4-Dinitrobenzoic Acid
  SciTegic03251110552D

 15 15  0  0  0  0            999 V2000
    0.0000    0.0000    0.0000 O   0  0
    0.0000    0.0000    0.0000 C   0  0
    0.0000    0.0000    0.0000 O   0  0
    0.0000    0.0000    0.0000 C   0  0
    0.0000    0.0000    0.0000 C   0  0
    0.0000    0.0000    0.0000 C   0  0
    0.0000    0.0000    0.0000 C   0  0
    0.0000    0.0000    0.0000 C   0  0
    0.0000    0.0000    0.0000 C   0  0
    0.0000    0.0000    0.0000 N   0  0
    0.0000    0.0000    0.0000 O   0  0
    0.0000    0.0000    0.0000 O   0  0
    0.0000    0.0000    0.0000 N   0  0
    0.0000    0.0000    0.0000 O   0  0
    0.0000    0.0000    0.0000 O   0  0
  1  2  1  0
  2  3  2  0
  2  4  1  0
  4  9  1  0
  4  5  2  3
  5  6  1  0
  6  7  2  3
  6 13  1  0
  7  8  1  0
  7 10  1  0
  8  9  2  3
 10 11  1  0
 10 12  1  0
 13 14  1  0
 13 15  1  0
M  END
> <Name>
3,4-Dinitrobenzoic Acid

> <CAS>
000528-45-0

> <VED1>
3.808

> <nHAcc>
6

> <MAXDP>
3.464

> <CIC0>
2.377

> <Log Koc Exp>
1.53

> <Log Koc Pred>
1.93

> <Hat>
0.057

> <Hat Cutoff>
0.161

> <ID Model>
309

> <Smiles>
OC(=O)c1cc(c(cc1)N(O)O)N(O)O

$$$$
2-Chloroacetanilide
  SciTegic03251110552D

 11 11  0  0  0  0            999 V2000
    0.0000    0.0000    0.0000 C   0  0
    0.0000    0.0000    0.0000 C   0  0
    0.0000    0.0000    0.0000 O   0  0
    0.0000    0.0000    0.0000 N   0  0
    0.0000    0.0000    0.0000 C   0  0
    0.0000    0.0000    0.0000 C   0  0
    0.0000    0.0000    0.0000 C   0  0
    0.0000    0.0000    0.0000 C   0  0
    0.0000    0.0000    0.0000 C   0  0
    0.0000    0.0000    0.0000 C   0  0
    0.0000    0.0000    0.0000 Cl  0  0
  1  2  1  0
  2  3  2  0
  2  4  1  0
  4  5  1  0
  5 10  1  0
  5  6  2  3
  6  7  1  0
  7  8  2  3
  8  9  1  0
  9 10  2  3
 10 11  1  0
M  END
> <Name>
2-Chloroacetanilide

> <CAS>
000533-17-5

> <VED1>
3.271

> <nHAcc>
2

> <MAXDP>
3.596

> <CIC0>
2.526

> <Log Koc Exp>
1.58

> <Log Koc Pred>
2.07

> <Hat>
0.024

> <Hat Cutoff>
0.161

> <ID Model>
310

> <Smiles>
CC(=O)Nc1ccccc1Cl

$$$$
3-Methylacetanilide
  SciTegic03251110552D

 11 11  0  0  0  0            999 V2000
    0.0000    0.0000    0.0000 C   0  0
    0.0000    0.0000    0.0000 C   0  0
    0.0000    0.0000    0.0000 C   0  0
    0.0000    0.0000    0.0000 C   0  0
    0.0000    0.0000    0.0000 C   0  0
    0.0000    0.0000    0.0000 C   0  0
    0.0000    0.0000    0.0000 C   0  0
    0.0000    0.0000    0.0000 N   0  0
    0.0000    0.0000    0.0000 C   0  0
    0.0000    0.0000    0.0000 O   0  0
    0.0000    0.0000    0.0000 C   0  0
  1  2  1  0
  2  7  1  0
  2  3  2  3
  3  4  1  0
  4  5  2  3
  4  8  1  0
  5  6  1  0
  6  7  2  3
  8  9  1  0
  9 10  2  0
  9 11  1  0
M  END
> <Name>
3-Methylacetanilide

> <CAS>
000537-92-8

> <VED1>
3.272

> <nHAcc>
2

> <MAXDP>
3.613

> <CIC0>
3.027

> <Log Koc Exp>
1.45

> <Log Koc Pred>
1.9

> <Hat>
0.027

> <Hat Cutoff>
0.161

> <ID Model>
311

> <Smiles>
Cc1cc(ccc1)NC(=O)C

$$$$
1,3-Dichloropropene
  SciTegic03251110552D

  5  4  0  0  0  0            999 V2000
    0.0000    0.0000    0.0000 Cl  0  0
    0.0000    0.0000    0.0000 C   0  0
    0.0000    0.0000    0.0000 C   0  0
    0.0000    0.0000    0.0000 C   0  0
    0.0000    0.0000    0.0000 Cl  0  0
  1  2  1  0
  2  3  1  0
  3  4  2  3
  4  5  1  0
M  END
> <Name>
1,3-Dichloropropene

> <CAS>
000542-75-6

> <VED1>
2.204

> <nHAcc>
0

> <MAXDP>
1.019

> <CIC0>
1.639

> <Log Koc Exp>
1.52

> <Log Koc Pred>
1.59

> <Hat>
0.055

> <Hat Cutoff>
0.161

> <ID Model>
314

> <Smiles>
ClCC=CCl

$$$$
3-Nitrophenol
  SciTegic03251110552D

 10 10  0  0  0  0            999 V2000
    0.0000    0.0000    0.0000 C   0  0
    0.0000    0.0000    0.0000 C   0  0
    0.0000    0.0000    0.0000 C   0  0
    0.0000    0.0000    0.0000 C   0  0
    0.0000    0.0000    0.0000 C   0  0
    0.0000    0.0000    0.0000 C   0  0
    0.0000    0.0000    0.0000 N   0  0
    0.0000    0.0000    0.0000 O   0  0
    0.0000    0.0000    0.0000 O   0  0
    0.0000    0.0000    0.0000 O   0  0
  1  6  1  0
  1  2  2  3
  2  3  1  0
  3  4  2  3
  4  5  1  0
  4 10  1  0
  5  6  2  3
  6  7  1  0
  7  8  1  0
  7  9  1  0
M  END
> <Name>
3-Nitrophenol

> <CAS>
000554-84-7

> <VED1>
3.123

> <nHAcc>
3

> <MAXDP>
3.048

> <CIC0>
2.125

> <Log Koc Exp>
1.72

> <Log Koc Pred>
1.72

> <Hat>
0.026

> <Hat Cutoff>
0.161

> <ID Model>
316

> <Smiles>
c1ccc(cc1N(O)O)O

$$$$
Neburon
  SciTegic03251110552D

 17 17  0  0  0  0            999 V2000
    0.0000    0.0000    0.0000 C   0  0
    0.0000    0.0000    0.0000 C   0  0
    0.0000    0.0000    0.0000 C   0  0
    0.0000    0.0000    0.0000 C   0  0
    0.0000    0.0000    0.0000 C   0  0
    0.0000    0.0000    0.0000 C   0  0
    0.0000    0.0000    0.0000 Cl  0  0
    0.0000    0.0000    0.0000 Cl  0  0
    0.0000    0.0000    0.0000 N   0  0
    0.0000    0.0000    0.0000 C   0  0
    0.0000    0.0000    0.0000 O   0  0
    0.0000    0.0000    0.0000 N   0  0
    0.0000    0.0000    0.0000 C   0  0
    0.0000    0.0000    0.0000 C   0  0
    0.0000    0.0000    0.0000 C   0  0
    0.0000    0.0000    0.0000 C   0  0
    0.0000    0.0000    0.0000 C   0  0
  1  6  1  0
  1  2  2  3
  2  3  1  0
  2  9  1  0
  3  4  2  3
  4  5  1  0
  5  6  2  3
  5  8  1  0
  6  7  1  0
  9 10  1  0
 10 11  2  0
 10 12  1  0
 12 13  1  0
 12 14  1  0
 14 15  1  0
 15 16  1  0
 16 17  1  0
M  END
> <Name>
Neburon

> <CAS>
000555-37-3

> <VED1>
4.056

> <nHAcc>
3

> <MAXDP>
4.753

> <CIC0>
3.364

> <Log Koc Exp>
3.38

> <Log Koc Pred>
2.74

> <Hat>
0.031

> <Hat Cutoff>
0.161

> <ID Model>
317

> <Smiles>
c1c(ccc(c1Cl)Cl)NC(=O)N(C)CCCC

$$$$
Methyl Isothiocyanate
  SciTegic03251110552D

  4  3  0  0  0  0            999 V2000
    0.0000    0.0000    0.0000 N   0  0
    0.0000    0.0000    0.0000 C   0  0
    0.0000    0.0000    0.0000 S   0  0
    0.0000    0.0000    0.0000 C   0  0
  1  2  2  0
  1  4  1  0
  2  3  2  0
M  END
> <Name>
Methyl Isothiocyanate

> <CAS>
000556-61-6

> <VED1>
1.974

> <nHAcc>
1

> <MAXDP>
0.47

> <CIC0>
0.965

> <Log Koc Exp>
0.97

> <Log Koc Pred>
1.16

> <Hat>
0.1

> <Hat Cutoff>
0.161

> <ID Model>
318

> <Smiles>
N(=C=S)C

$$$$
Ethion
  SciTegic03251110552D

 19 18  0  0  0  0            999 V2000
    0.0000    0.0000    0.0000 S   0  0
    0.0000    0.0000    0.0000 C   0  0
    0.0000    0.0000    0.0000 S   0  0
    0.0000    0.0000    0.0000 P   0  0
    0.0000    0.0000    0.0000 S   0  0
    0.0000    0.0000    0.0000 O   0  0
    0.0000    0.0000    0.0000 C   0  0
    0.0000    0.0000    0.0000 C   0  0
    0.0000    0.0000    0.0000 O   0  0
    0.0000    0.0000    0.0000 C   0  0
    0.0000    0.0000    0.0000 C   0  0
    0.0000    0.0000    0.0000 P   0  0
    0.0000    0.0000    0.0000 S   0  0
    0.0000    0.0000    0.0000 O   0  0
    0.0000    0.0000    0.0000 C   0  0
    0.0000    0.0000    0.0000 C   0  0
    0.0000    0.0000    0.0000 O   0  0
    0.0000    0.0000    0.0000 C   0  0
    0.0000    0.0000    0.0000 C   0  0
  1  2  1  0
  1 12  1  0
  2  3  1  0
  3  4  1  0
  4  5  2  0
  4  6  1  0
  4  9  1  0
  6  7  1  0
  7  8  1  0
  9 10  1  0
 10 11  1  0
 12 13  2  0
 12 14  1  0
 12 17  1  0
 14 15  1  0
 15 16  1  0
 17 18  1  0
 18 19  1  0
M  END
> <Name>
Ethion

> <CAS>
000563-12-2

> <VED1>
4.286

> <nHAcc>
4

> <MAXDP>
2.055

> <CIC0>
3.528

> <Log Koc Exp>
4.13

> <Log Koc Pred>
3.67

> <Hat>
0.052

> <Hat Cutoff>
0.161

> <ID Model>
319

> <Smiles>
S(CSP(=S)(OCC)OCC)P(=S)(OCC)OCC

$$$$
2,3-Dichlorophenol
  SciTegic03251110552D

  9  9  0  0  0  0            999 V2000
    0.0000    0.0000    0.0000 C   0  0
    0.0000    0.0000    0.0000 C   0  0
    0.0000    0.0000    0.0000 C   0  0
    0.0000    0.0000    0.0000 C   0  0
    0.0000    0.0000    0.0000 C   0  0
    0.0000    0.0000    0.0000 Cl  0  0
    0.0000    0.0000    0.0000 C   0  0
    0.0000    0.0000    0.0000 Cl  0  0
    0.0000    0.0000    0.0000 O   0  0
  1  7  1  0
  1  2  2  3
  1  9  1  0
  2  3  1  0
  3  4  2  3
  4  5  1  0
  5  6  1  0
  5  7  2  3
  7  8  1  0
M  END
> <Name>
2,3-Dichlorophenol

> <CAS>
000576-24-9

> <VED1>
2.968

> <nHAcc>
1

> <MAXDP>
2.884

> <CIC0>
1.962

> <Log Koc Exp>
2.65

> <Log Koc Pred>
2.17

> <Hat>
0.041

> <Hat Cutoff>
0.161

> <ID Model>
320

> <Smiles>
c1(cccc(Cl)c1Cl)O

$$$$
2,3-dimethylnaphthalene
  SciTegic03251110552D

 12 13  0  0  0  0            999 V2000
    0.0000    0.0000    0.0000 C   0  0
    0.0000    0.0000    0.0000 C   0  0
    0.0000    0.0000    0.0000 C   0  0
    0.0000    0.0000    0.0000 C   0  0
    0.0000    0.0000    0.0000 C   0  0
    0.0000    0.0000    0.0000 C   0  0
    0.0000    0.0000    0.0000 C   0  0
    0.0000    0.0000    0.0000 C   0  0
    0.0000    0.0000    0.0000 C   0  0
    0.0000    0.0000    0.0000 C   0  0
    0.0000    0.0000    0.0000 C   0  0
    0.0000    0.0000    0.0000 C   0  0
  1  6  1  0
  1  2  2  3
  1 12  1  0
  2  3  1  0
  2 11  1  0
  3  4  2  3
  4 10  1  0
  4  5  1  0
  5  6  2  3
  5  7  1  0
  7  8  2  3
  8  9  1  0
  9 10  2  3
M  END
> <Name>
2,3-dimethylnaphthalene

> <CAS>
000581-40-8

> <VED1>
3.426

> <nHAcc>
0

> <MAXDP>
0.241

> <CIC0>
3.585

> <Log Koc Exp>
4.08

> <Log Koc Pred>
3.75

> <Hat>
0.075

> <Hat Cutoff>
0.161

> <ID Model>
321

> <Smiles>
c1(c(cc2c(c1)cccc2)C)C

$$$$
4-Bromonitrobenzene
  SciTegic03251110552D

 10 10  0  0  0  0            999 V2000
    0.0000    0.0000    0.0000 N   0  0
    0.0000    0.0000    0.0000 O   0  0
    0.0000    0.0000    0.0000 C   0  0
    0.0000    0.0000    0.0000 C   0  0
    0.0000    0.0000    0.0000 C   0  0
    0.0000    0.0000    0.0000 C   0  0
    0.0000    0.0000    0.0000 C   0  0
    0.0000    0.0000    0.0000 C   0  0
    0.0000    0.0000    0.0000 Br  0  0
    0.0000    0.0000    0.0000 O   0  0
  1  2  1  0
  1  3  1  0
  1 10  1  0
  3  8  1  0
  3  4  2  3
  4  5  1  0
  5  6  2  3
  6  7  1  0
  6  9  1  0
  7  8  2  3
M  END
> <Name>
4-Bromonitrobenzene

> <CAS>
000586-78-7

> <VED1>
3.117

> <nHAcc>
2

> <MAXDP>
3.102

> <CIC0>
1.822

> <Log Koc Exp>
2.42

> <Log Koc Pred>
2.13

> <Hat>
0.044

> <Hat Cutoff>
0.161

> <ID Model>
322

> <Smiles>
N(O)(c1ccc(cc1)Br)O

$$$$
3-(3-Chlorophenyl)-1,1-dimethylurea
  SciTegic03251110552D

 13 13  0  0  0  0            999 V2000
    0.0000    0.0000    0.0000 C   0  0
    0.0000    0.0000    0.0000 C   0  0
    0.0000    0.0000    0.0000 C   0  0
    0.0000    0.0000    0.0000 C   0  0
    0.0000    0.0000    0.0000 C   0  0
    0.0000    0.0000    0.0000 C   0  0
    0.0000    0.0000    0.0000 Cl  0  0
    0.0000    0.0000    0.0000 N   0  0
    0.0000    0.0000    0.0000 C   0  0
    0.0000    0.0000    0.0000 O   0  0
    0.0000    0.0000    0.0000 N   0  0
    0.0000    0.0000    0.0000 C   0  0
    0.0000    0.0000    0.0000 C   0  0
  1  6  1  0
  1  2  2  3
  2  3  1  0
  2  8  1  0
  3  4  2  3
  4  5  1  0
  4  7  1  0
  5  6  2  3
  8  9  1  0
  9 10  2  0
  9 11  1  0
 11 12  1  0
 11 13  1  0
M  END
> <Name>
3-(3-Chlorophenyl)-1,1-dimethylurea

> <CAS>
000587-34-8

> <VED1>
3.558

> <nHAcc>
3

> <MAXDP>
4.195

> <CIC0>
2.858

> <Log Koc Exp>
1.79

> <Log Koc Pred>
2.04

> <Hat>
0.021

> <Hat Cutoff>
0.161

> <ID Model>
323

> <Smiles>
c1c(cc(cc1)Cl)NC(=O)N(C)C

$$$$
o-Chloroacetanilide
  SciTegic03251110552D

 11 11  0  0  0  0            999 V2000
    0.0000    0.0000    0.0000 C   0  0
    0.0000    0.0000    0.0000 O   0  0
    0.0000    0.0000    0.0000 C   0  0
    0.0000    0.0000    0.0000 Cl  0  0
    0.0000    0.0000    0.0000 N   0  0
    0.0000    0.0000    0.0000 C   0  0
    0.0000    0.0000    0.0000 C   0  0
    0.0000    0.0000    0.0000 C   0  0
    0.0000    0.0000    0.0000 C   0  0
    0.0000    0.0000    0.0000 C   0  0
    0.0000    0.0000    0.0000 C   0  0
  1  2  2  0
  1  3  1  0
  1  5  1  0
  3  4  1  0
  5  6  1  0
  6 11  1  0
  6  7  2  3
  7  8  1  0
  8  9  2  3
  9 10  1  0
 10 11  2  3
M  END
> <Name>
o-Chloroacetanilide

> <CAS>
000587-65-5

> <VED1>
3.271

> <nHAcc>
2

> <MAXDP>
3.738

> <CIC0>
2.526

> <Log Koc Exp>
1.58

> <Log Koc Pred>
2.02

> <Hat>
0.026

> <Hat Cutoff>
0.161

> <ID Model>
324

> <Smiles>
C(=O)(CCl)Nc1ccccc1

$$$$
3-Chloroacetanilide
  SciTegic03251110552D

 11 11  0  0  0  0            999 V2000
    0.0000    0.0000    0.0000 O   0  0
    0.0000    0.0000    0.0000 C   0  0
    0.0000    0.0000    0.0000 C   0  0
    0.0000    0.0000    0.0000 N   0  0
    0.0000    0.0000    0.0000 C   0  0
    0.0000    0.0000    0.0000 C   0  0
    0.0000    0.0000    0.0000 C   0  0
    0.0000    0.0000    0.0000 C   0  0
    0.0000    0.0000    0.0000 C   0  0
    0.0000    0.0000    0.0000 C   0  0
    0.0000    0.0000    0.0000 Cl  0  0
  1  2  2  0
  2  3  1  0
  2  4  1  0
  4  5  1  0
  5 10  1  0
  5  6  2  3
  6  7  1  0
  7  8  2  3
  7 11  1  0
  8  9  1  0
  9 10  2  3
M  END
> <Name>
3-Chloroacetanilide

> <CAS>
000588-07-8

> <VED1>
3.272

> <nHAcc>
2

> <MAXDP>
3.57

> <CIC0>
2.526

> <Log Koc Exp>
1.86

> <Log Koc Pred>
2.08

> <Hat>
0.023

> <Hat Cutoff>
0.161

> <ID Model>
325

> <Smiles>
O=C(C)Nc1cc(ccc1)Cl

$$$$
3,5-Dichlorophenol
  SciTegic03251110552D

  9  9  0  0  0  0            999 V2000
    0.0000    0.0000    0.0000 C   0  0
    0.0000    0.0000    0.0000 C   0  0
    0.0000    0.0000    0.0000 C   0  0
    0.0000    0.0000    0.0000 C   0  0
    0.0000    0.0000    0.0000 C   0  0
    0.0000    0.0000    0.0000 C   0  0
    0.0000    0.0000    0.0000 Cl  0  0
    0.0000    0.0000    0.0000 Cl  0  0
    0.0000    0.0000    0.0000 O   0  0
  1  6  1  0
  1  2  2  3
  1  9  1  0
  2  3  1  0
  3  4  2  3
  3  8  1  0
  4  5  1  0
  5  6  2  3
  5  7  1  0
M  END
> <Name>
3,5-Dichlorophenol

> <CAS>
000591-35-5

> <VED1>
2.967

> <nHAcc>
1

> <MAXDP>
2.825

> <CIC0>
1.962

> <Log Koc Exp>
2.83

> <Log Koc Pred>
2.19

> <Hat>
0.04

> <Hat Cutoff>
0.161

> <ID Model>
326

> <Smiles>
c1(cc(cc(c1)Cl)Cl)O

$$$$
Iodobenzene
  SciTegic03251110552D

  7  7  0  0  0  0            999 V2000
    0.0000    0.0000    0.0000 C   0  0
    0.0000    0.0000    0.0000 C   0  0
    0.0000    0.0000    0.0000 C   0  0
    0.0000    0.0000    0.0000 C   0  0
    0.0000    0.0000    0.0000 C   0  0
    0.0000    0.0000    0.0000 C   0  0
    0.0000    0.0000    0.0000 I   0  0
  1  6  1  0
  1  2  2  3
  2  3  1  0
  3  4  2  3
  4  5  1  0
  5  6  2  3
  6  7  1  0
M  END
> <Name>
Iodobenzene

> <CAS>
000591-50-4

> <VED1>
2.629

> <nHAcc>
0

> <MAXDP>
0.16

> <CIC0>
2.26

> <Log Koc Exp>
3.1

> <Log Koc Pred>
2.54

> <Hat>
0.052

> <Hat Cutoff>
0.161

> <ID Model>
327

> <Smiles>
c1ccccc1I

$$$$
Dibromodichloromethane
  SciTegic03251110552D

  5  4  0  0  0  0            999 V2000
    0.0000    0.0000    0.0000 Cl  0  0
    0.0000    0.0000    0.0000 C   0  0
    0.0000    0.0000    0.0000 Cl  0  0
    0.0000    0.0000    0.0000 Br  0  0
    0.0000    0.0000    0.0000 Br  0  0
  1  2  1  0
  2  3  1  0
  2  4  1  0
  2  5  1  0
M  END
> <Name>
Dibromodichloromethane

> <CAS>
000594-18-3

> <VED1>
2.204

> <nHAcc>
0

> <MAXDP>
1.018

> <CIC0>
0.8

> <Log Koc Exp>
1.92

> <Log Koc Pred>
1.86

> <Hat>
0.107

> <Hat Cutoff>
0.161

> <ID Model>
328

> <Smiles>
ClC(Cl)(Br)Br

$$$$
Trichloroacetamide
  SciTegic03251110552D

  7  6  0  0  0  0            999 V2000
    0.0000    0.0000    0.0000 C   0  0
    0.0000    0.0000    0.0000 C   0  0
    0.0000    0.0000    0.0000 O   0  0
    0.0000    0.0000    0.0000 N   0  0
    0.0000    0.0000    0.0000 Cl  0  0
    0.0000    0.0000    0.0000 Cl  0  0
    0.0000    0.0000    0.0000 Cl  0  0
  1  2  1  0
  1  5  1  0
  1  6  1  0
  1  7  1  0
  2  3  2  0
  2  4  1  0
M  END
> <Name>
Trichloroacetamide

> <CAS>
000594-65-0

> <VED1>
2.607

> <nHAcc>
2

> <MAXDP>
2.847

> <CIC0>
0.973

> <Log Koc Exp>
0.99

> <Log Koc Pred>
1.41

> <Hat>
0.097

> <Hat Cutoff>
0.161

> <ID Model>
329

> <Smiles>
C(C(=O)N)(Cl)(Cl)Cl

$$$$
Methyl-urea
  SciTegic03251110552D

  5  4  0  0  0  0            999 V2000
    0.0000    0.0000    0.0000 C   0  0
    0.0000    0.0000    0.0000 N   0  0
    0.0000    0.0000    0.0000 C   0  0
    0.0000    0.0000    0.0000 O   0  0
    0.0000    0.0000    0.0000 N   0  0
  1  2  1  0
  2  3  1  0
  3  4  2  0
  3  5  1  0
M  END
> <Name>
Methyl-urea

> <CAS>
000598-50-5

> <VED1>
2.202

> <nHAcc>
3

> <MAXDP>
2.479

> <CIC0>
1.774

> <Log Koc Exp>
1.77

> <Log Koc Pred>
0.08

> <Hat>
0.078

> <Hat Cutoff>
0.161

> <ID Model>
330

> <Smiles>
CNC(=O)N

$$$$
2,6-Dichloroaniline
  SciTegic03251110552D

  9  9  0  0  0  0            999 V2000
    0.0000    0.0000    0.0000 C   0  0
    0.0000    0.0000    0.0000 C   0  0
    0.0000    0.0000    0.0000 C   0  0
    0.0000    0.0000    0.0000 C   0  0
    0.0000    0.0000    0.0000 C   0  0
    0.0000    0.0000    0.0000 C   0  0
    0.0000    0.0000    0.0000 Cl  0  0
    0.0000    0.0000    0.0000 N   0  0
    0.0000    0.0000    0.0000 Cl  0  0
  1  6  1  0
  1  2  2  3
  2  3  1  0
  2  9  1  0
  3  4  2  3
  3  8  1  0
  4  5  1  0
  4  7  1  0
  5  6  2  3
M  END
> <Name>
2,6-Dichloroaniline

> <CAS>
000608-31-1

> <VED1>
2.968

> <nHAcc>
1

> <MAXDP>
1.493

> <CIC0>
2.08

> <Log Koc Exp>
3.25

> <Log Koc Pred>
2.56

> <Hat>
0.032

> <Hat Cutoff>
0.161

> <ID Model>
331

> <Smiles>
c1c(c(c(cc1)Cl)N)Cl

$$$$
Pentachlorobenzene
  SciTegic03251110552D

 11 11  0  0  0  0            999 V2000
    0.0000    0.0000    0.0000 C   0  0
    0.0000    0.0000    0.0000 C   0  0
    0.0000    0.0000    0.0000 C   0  0
    0.0000    0.0000    0.0000 C   0  0
    0.0000    0.0000    0.0000 C   0  0
    0.0000    0.0000    0.0000 C   0  0
    0.0000    0.0000    0.0000 Cl  0  0
    0.0000    0.0000    0.0000 Cl  0  0
    0.0000    0.0000    0.0000 Cl  0  0
    0.0000    0.0000    0.0000 Cl  0  0
    0.0000    0.0000    0.0000 Cl  0  0
  1  6  1  0
  1  2  2  3
  2  3  1  0
  2 11  1  0
  3  4  2  3
  3 10  1  0
  4  5  1  0
  4  9  1  0
  5  6  2  3
  5  8  1  0
  6  7  1  0
M  END
> <Name>
Pentachlorobenzene

> <CAS>
000608-93-5

> <VED1>
3.274

> <nHAcc>
0

> <MAXDP>
1.544

> <CIC0>
2.26

> <Log Koc Exp>
4.41

> <Log Koc Pred>
3.47

> <Hat>
0.045

> <Hat Cutoff>
0.161

> <ID Model>
332

> <Smiles>
c1c(c(c(c(c1Cl)Cl)Cl)Cl)Cl

$$$$
3,4,5-Trichlorophenol
  SciTegic03251110552D

 10 10  0  0  0  0            999 V2000
    0.0000    0.0000    0.0000 C   0  0
    0.0000    0.0000    0.0000 C   0  0
    0.0000    0.0000    0.0000 C   0  0
    0.0000    0.0000    0.0000 C   0  0
    0.0000    0.0000    0.0000 C   0  0
    0.0000    0.0000    0.0000 C   0  0
    0.0000    0.0000    0.0000 Cl  0  0
    0.0000    0.0000    0.0000 Cl  0  0
    0.0000    0.0000    0.0000 Cl  0  0
    0.0000    0.0000    0.0000 O   0  0
  1  6  1  0
  1  2  2  3
  1 10  1  0
  2  3  1  0
  3  4  2  3
  3  9  1  0
  4  5  1  0
  4  8  1  0
  5  6  2  3
  5  7  1  0
M  END
> <Name>
3,4,5-Trichlorophenol

> <CAS>
000609-19-8

> <VED1>
3.123

> <nHAcc>
1

> <MAXDP>
2.891

> <CIC0>
1.925

> <Log Koc Exp>
3.56

> <Log Koc Pred>
2.51

> <Hat>
0.048

> <Hat Cutoff>
0.161

> <ID Model>
333

> <Smiles>
c1(cc(c(c(c1)Cl)Cl)Cl)O

$$$$
2-Nitrobenzamide
  SciTegic03251110552D

 12 12  0  0  0  0            999 V2000
    0.0000    0.0000    0.0000 C   0  0
    0.0000    0.0000    0.0000 C   0  0
    0.0000    0.0000    0.0000 C   0  0
    0.0000    0.0000    0.0000 C   0  0
    0.0000    0.0000    0.0000 C   0  0
    0.0000    0.0000    0.0000 C   0  0
    0.0000    0.0000    0.0000 N   0  0
    0.0000    0.0000    0.0000 O   0  0
    0.0000    0.0000    0.0000 O   0  0
    0.0000    0.0000    0.0000 C   0  0
    0.0000    0.0000    0.0000 O   0  0
    0.0000    0.0000    0.0000 N   0  0
  1  6  1  0
  1  2  2  3
  2  3  1  0
  3  4  2  3
  4  5  1  0
  4 10  1  0
  5  6  2  3
  5  7  1  0
  7  8  1  0
  7  9  1  0
 10 11  2  0
 10 12  1  0
M  END
> <Name>
2-Nitrobenzamide

> <CAS>
000610-15-1

> <VED1>
3.414

> <nHAcc>
4

> <MAXDP>
3.644

> <CIC0>
2.329

> <Log Koc Exp>
1.45

> <Log Koc Pred>
1.74

> <Hat>
0.025

> <Hat Cutoff>
0.161

> <ID Model>
335

> <Smiles>
c1ccc(c(c1)N(O)O)C(=O)N

$$$$
N,N-Dimethylbenzamide
  SciTegic03251110552D

 11 11  0  0  0  0            999 V2000
    0.0000    0.0000    0.0000 C   0  0
    0.0000    0.0000    0.0000 C   0  0
    0.0000    0.0000    0.0000 C   0  0
    0.0000    0.0000    0.0000 C   0  0
    0.0000    0.0000    0.0000 C   0  0
    0.0000    0.0000    0.0000 C   0  0
    0.0000    0.0000    0.0000 C   0  0
    0.0000    0.0000    0.0000 O   0  0
    0.0000    0.0000    0.0000 N   0  0
    0.0000    0.0000    0.0000 C   0  0
    0.0000    0.0000    0.0000 C   0  0
  1  6  1  0
  1  2  2  3
  2  3  1  0
  3  4  2  3
  4  5  1  0
  4  7  1  0
  5  6  2  3
  7  8  2  0
  7  9  1  0
  9 10  1  0
  9 11  1  0
M  END
> <Name>
N,N-Dimethylbenzamide

> <CAS>
000611-74-5

> <VED1>
3.274

> <nHAcc>
2

> <MAXDP>
4.27

> <CIC0>
3.027

> <Log Koc Exp>
1.54

> <Log Koc Pred>
1.7

> <Hat>
0.042

> <Hat Cutoff>
0.161

> <ID Model>
336

> <Smiles>
c1ccc(cc1)C(=O)N(C)C

$$$$
2-Aminoanthracene
  SciTegic03251110552D

 15 17  0  0  0  0            999 V2000
    0.0000    0.0000    0.0000 C   0  0
    0.0000    0.0000    0.0000 C   0  0
    0.0000    0.0000    0.0000 C   0  0
    0.0000    0.0000    0.0000 C   0  0
    0.0000    0.0000    0.0000 C   0  0
    0.0000    0.0000    0.0000 C   0  0
    0.0000    0.0000    0.0000 C   0  0
    0.0000    0.0000    0.0000 C   0  0
    0.0000    0.0000    0.0000 C   0  0
    0.0000    0.0000    0.0000 C   0  0
    0.0000    0.0000    0.0000 C   0  0
    0.0000    0.0000    0.0000 C   0  0
    0.0000    0.0000    0.0000 C   0  0
    0.0000    0.0000    0.0000 C   0  0
    0.0000    0.0000    0.0000 N   0  0
  1  6  1  0
  1  2  2  3
  2  3  1  0
  3  4  2  3
  4 10  1  0
  4  5  1  0
  5  6  2  3
  5  7  1  0
  7  8  2  3
  8 14  1  0
  8  9  1  0
  9 10  2  3
  9 11  1  0
 11 12  2  3
 12 13  1  0
 13 14  2  3
 13 15  1  0
M  END
> <Name>
2-Aminoanthracene

> <CAS>
000613-13-8

> <VED1>
3.826

> <nHAcc>
1

> <MAXDP>
1.768

> <CIC0>
3.514

> <Log Koc Exp>
4.45

> <Log Koc Pred>
3.81

> <Hat>
0.033

> <Hat Cutoff>
0.161

> <ID Model>
337

> <Smiles>
c1ccc2c(c1)cc1c(c2)ccc(c1)N

$$$$
N-Methylbenzamide
  SciTegic03251110552D

 10 10  0  0  0  0            999 V2000
    0.0000    0.0000    0.0000 C   0  0
    0.0000    0.0000    0.0000 C   0  0
    0.0000    0.0000    0.0000 C   0  0
    0.0000    0.0000    0.0000 C   0  0
    0.0000    0.0000    0.0000 C   0  0
    0.0000    0.0000    0.0000 C   0  0
    0.0000    0.0000    0.0000 C   0  0
    0.0000    0.0000    0.0000 O   0  0
    0.0000    0.0000    0.0000 N   0  0
    0.0000    0.0000    0.0000 C   0  0
  1  6  1  0
  1  2  2  3
  2  3  1  0
  3  4  2  3
  4  5  1  0
  5  6  2  3
  5  7  1  0
  7  8  2  0
  7  9  1  0
  9 10  1  0
M  END
> <Name>
N-Methylbenzamide

> <CAS>
000613-93-4

> <VED1>
3.119

> <nHAcc>
2

> <MAXDP>
3.902

> <CIC0>
2.765

> <Log Koc Exp>
1.42

> <Log Koc Pred>
1.57

> <Hat>
0.034

> <Hat Cutoff>
0.161

> <ID Model>
338

> <Smiles>
c1cccc(c1)C(=O)NC

$$$$
3,5-Dinitroaniline
  SciTegic03251110552D

 13 13  0  0  0  0            999 V2000
    0.0000    0.0000    0.0000 C   0  0
    0.0000    0.0000    0.0000 C   0  0
    0.0000    0.0000    0.0000 C   0  0
    0.0000    0.0000    0.0000 C   0  0
    0.0000    0.0000    0.0000 C   0  0
    0.0000    0.0000    0.0000 C   0  0
    0.0000    0.0000    0.0000 N   0  0
    0.0000    0.0000    0.0000 N   0  0
    0.0000    0.0000    0.0000 O   0  0
    0.0000    0.0000    0.0000 O   0  0
    0.0000    0.0000    0.0000 N   0  0
    0.0000    0.0000    0.0000 O   0  0
    0.0000    0.0000    0.0000 O   0  0
  1  6  1  0
  1  2  2  3
  1 11  1  0
  2  3  1  0
  3  4  2  3
  3  8  1  0
  4  5  1  0
  5  6  2  3
  5  7  1  0
  8  9  1  0
  8 10  1  0
 11 12  1  0
 11 13  1  0
M  END
> <Name>
3,5-Dinitroaniline

> <CAS>
000618-87-1

> <VED1>
3.553

> <nHAcc>
5

> <MAXDP>
3.255

> <CIC0>
2.215

> <Log Koc Exp>
2.55

> <Log Koc Pred>
1.85

> <Hat>
0.044

> <Hat Cutoff>
0.161

> <ID Model>
340

> <Smiles>
c1(cc(cc(c1)N)N(O)O)N(O)O

$$$$
4-Methylbenzamide
  SciTegic03251110552D

 10 10  0  0  0  0            999 V2000
    0.0000    0.0000    0.0000 C   0  0
    0.0000    0.0000    0.0000 C   0  0
    0.0000    0.0000    0.0000 C   0  0
    0.0000    0.0000    0.0000 C   0  0
    0.0000    0.0000    0.0000 C   0  0
    0.0000    0.0000    0.0000 C   0  0
    0.0000    0.0000    0.0000 C   0  0
    0.0000    0.0000    0.0000 C   0  0
    0.0000    0.0000    0.0000 O   0  0
    0.0000    0.0000    0.0000 N   0  0
  1  2  1  0
  2  7  1  0
  2  3  2  3
  3  4  1  0
  4  5  2  3
  5  6  1  0
  5  8  1  0
  6  7  2  3
  8  9  2  0
  8 10  1  0
M  END
> <Name>
4-Methylbenzamide

> <CAS>
000619-55-6

> <VED1>
3.117

> <nHAcc>
2

> <MAXDP>
3.534

> <CIC0>
2.765

> <Log Koc Exp>
1.78

> <Log Koc Pred>
1.68

> <Hat>
0.027

> <Hat Cutoff>
0.161

> <ID Model>
341

> <Smiles>
Cc1ccc(cc1)C(=O)N

$$$$
4-Nitrobenzamide
  SciTegic03251110552D

 12 12  0  0  0  0            999 V2000
    0.0000    0.0000    0.0000 C   0  0
    0.0000    0.0000    0.0000 C   0  0
    0.0000    0.0000    0.0000 C   0  0
    0.0000    0.0000    0.0000 C   0  0
    0.0000    0.0000    0.0000 C   0  0
    0.0000    0.0000    0.0000 C   0  0
    0.0000    0.0000    0.0000 N   0  0
    0.0000    0.0000    0.0000 O   0  0
    0.0000    0.0000    0.0000 O   0  0
    0.0000    0.0000    0.0000 C   0  0
    0.0000    0.0000    0.0000 O   0  0
    0.0000    0.0000    0.0000 N   0  0
  1  6  1  0
  1  2  2  3
  2  3  1  0
  2 10  1  0
  3  4  2  3
  4  5  1  0
  5  6  2  3
  5  7  1  0
  7  8  1  0
  7  9  1  0
 10 11  2  0
 10 12  1  0
M  END
> <Name>
4-Nitrobenzamide

> <CAS>
000619-80-7

> <VED1>
3.408

> <nHAcc>
4

> <MAXDP>
3.534

> <CIC0>
2.329

> <Log Koc Exp>
1.93

> <Log Koc Pred>
1.76

> <Hat>
0.025

> <Hat Cutoff>
0.161

> <ID Model>
342

> <Smiles>
c1c(ccc(c1)N(O)O)C(=O)N

$$$$
3-Bromoacetanilide
  SciTegic03251110552D

 11 11  0  0  0  0            999 V2000
    0.0000    0.0000    0.0000 C   0  0
    0.0000    0.0000    0.0000 C   0  0
    0.0000    0.0000    0.0000 C   0  0
    0.0000    0.0000    0.0000 C   0  0
    0.0000    0.0000    0.0000 C   0  0
    0.0000    0.0000    0.0000 C   0  0
    0.0000    0.0000    0.0000 Br  0  0
    0.0000    0.0000    0.0000 N   0  0
    0.0000    0.0000    0.0000 C   0  0
    0.0000    0.0000    0.0000 O   0  0
    0.0000    0.0000    0.0000 C   0  0
  1  6  1  0
  1  2  2  3
  2  3  1  0
  2  8  1  0
  3  4  2  3
  4  5  1  0
  4  7  1  0
  5  6  2  3
  8  9  1  0
  9 10  2  0
  9 11  1  0
M  END
> <Name>
3-Bromoacetanilide

> <CAS>
000621-38-5

> <VED1>
3.272

> <nHAcc>
2

> <MAXDP>
3.598

> <CIC0>
2.526

> <Log Koc Exp>
2.01

> <Log Koc Pred>
2.07

> <Hat>
0.024

> <Hat Cutoff>
0.161

> <ID Model>
343

> <Smiles>
c1c(cc(cc1)Br)NC(=O)C

$$$$
4-Ethyltoluene
  SciTegic03251110552D

  9  9  0  0  0  0            999 V2000
    0.0000    0.0000    0.0000 C   0  0
    0.0000    0.0000    0.0000 C   0  0
    0.0000    0.0000    0.0000 C   0  0
    0.0000    0.0000    0.0000 C   0  0
    0.0000    0.0000    0.0000 C   0  0
    0.0000    0.0000    0.0000 C   0  0
    0.0000    0.0000    0.0000 C   0  0
    0.0000    0.0000    0.0000 C   0  0
    0.0000    0.0000    0.0000 C   0  0
  1  6  1  0
  1  2  2  3
  1  8  1  0
  2  3  1  0
  3  4  2  3
  4  5  1  0
  4  7  1  0
  5  6  2  3
  8  9  1  0
M  END
> <Name>
4-Ethyltoluene

> <CAS>
000622-96-8

> <VED1>
2.956

> <nHAcc>
0

> <MAXDP>
0.176

> <CIC0>
3.407

> <Log Koc Exp>
3.62

> <Log Koc Pred>
2.85

> <Hat>
0.086

> <Hat Cutoff>
0.161

> <ID Model>
344

> <Smiles>
c1(ccc(cc1)C)CC

$$$$
3,5-Dichloroaniline
  SciTegic03251110552D

  9  9  0  0  0  0            999 V2000
    0.0000    0.0000    0.0000 C   0  0
    0.0000    0.0000    0.0000 C   0  0
    0.0000    0.0000    0.0000 C   0  0
    0.0000    0.0000    0.0000 C   0  0
    0.0000    0.0000    0.0000 C   0  0
    0.0000    0.0000    0.0000 C   0  0
    0.0000    0.0000    0.0000 Cl  0  0
    0.0000    0.0000    0.0000 N   0  0
    0.0000    0.0000    0.0000 Cl  0  0
  1  6  1  0
  1  2  2  3
  1  9  1  0
  2  3  1  0
  3  4  2  3
  3  8  1  0
  4  5  1  0
  5  6  2  3
  5  7  1  0
M  END
> <Name>
3,5-Dichloroaniline

> <CAS>
000626-43-7

> <VED1>
2.967

> <nHAcc>
1

> <MAXDP>
1.475

> <CIC0>
2.08

> <Log Koc Exp>
2.44

> <Log Koc Pred>
2.57

> <Hat>
0.032

> <Hat Cutoff>
0.161

> <ID Model>
345

> <Smiles>
c1(cc(cc(c1)Cl)N)Cl

$$$$
1,1,1,2-Tetrachloroethane
  SciTegic03251110552D

  6  5  0  0  0  0            999 V2000
    0.0000    0.0000    0.0000 C   0  0
    0.0000    0.0000    0.0000 C   0  0
    0.0000    0.0000    0.0000 Cl  0  0
    0.0000    0.0000    0.0000 Cl  0  0
    0.0000    0.0000    0.0000 Cl  0  0
    0.0000    0.0000    0.0000 Cl  0  0
  1  2  1  0
  1  4  1  0
  1  5  1  0
  1  6  1  0
  2  3  1  0
M  END
> <Name>
1,1,1,2-Tetrachloroethane

> <CAS>
000630-20-6

> <VED1>
2.411

> <nHAcc>
0

> <MAXDP>
1.005

> <CIC0>
1.5

> <Log Koc Exp>
1.73

> <Log Koc Pred>
2.07

> <Hat>
0.058

> <Hat Cutoff>
0.161

> <ID Model>
346

> <Smiles>
C(CCl)(Cl)(Cl)Cl

$$$$
Tetrachlorophthalate
  SciTegic03251110552D

 16 16  0  0  0  0            999 V2000
    0.0000    0.0000    0.0000 C   0  0
    0.0000    0.0000    0.0000 C   0  0
    0.0000    0.0000    0.0000 C   0  0
    0.0000    0.0000    0.0000 C   0  0
    0.0000    0.0000    0.0000 C   0  0
    0.0000    0.0000    0.0000 C   0  0
    0.0000    0.0000    0.0000 Cl  0  0
    0.0000    0.0000    0.0000 C   0  0
    0.0000    0.0000    0.0000 O   0  0
    0.0000    0.0000    0.0000 O   0  0
    0.0000    0.0000    0.0000 C   0  0
    0.0000    0.0000    0.0000 O   0  0
    0.0000    0.0000    0.0000 O   0  0
    0.0000    0.0000    0.0000 Cl  0  0
    0.0000    0.0000    0.0000 Cl  0  0
    0.0000    0.0000    0.0000 Cl  0  0
  1  6  1  0
  1  2  2  3
  1 16  1  0
  2  3  1  0
  2 15  1  0
  3  4  2  3
  3 14  1  0
  4  5  1  0
  4 11  1  0
  5  6  2  3
  5  8  1  0
  6  7  1  0
  8  9  2  0
  8 10  1  0
 11 12  2  0
 11 13  1  0
M  END
> <Name>
Tetrachlorophthalate

> <CAS>
000632-58-6

> <VED1>
3.941

> <nHAcc>
4

> <MAXDP>
3.855

> <CIC0>
2.333

> <Log Koc Exp>
3.3

> <Log Koc Pred>
2.78

> <Hat>
0.042

> <Hat Cutoff>
0.161

> <ID Model>
347

> <Smiles>
c1(c(c(c(c(c1Cl)C(=O)O)C(=O)O)Cl)Cl)Cl

$$$$
1,2,3,4-Tetrachlorobenzene
  SciTegic03251110552D

 10 10  0  0  0  0            999 V2000
    0.0000    0.0000    0.0000 C   0  0
    0.0000    0.0000    0.0000 C   0  0
    0.0000    0.0000    0.0000 C   0  0
    0.0000    0.0000    0.0000 C   0  0
    0.0000    0.0000    0.0000 C   0  0
    0.0000    0.0000    0.0000 C   0  0
    0.0000    0.0000    0.0000 Cl  0  0
    0.0000    0.0000    0.0000 Cl  0  0
    0.0000    0.0000    0.0000 Cl  0  0
    0.0000    0.0000    0.0000 Cl  0  0
  1  6  1  0
  1  2  2  3
  2  3  1  0
  3  4  2  3
  3 10  1  0
  4  5  1  0
  4  9  1  0
  5  6  2  3
  5  8  1  0
  6  7  1  0
M  END
> <Name>
1,2,3,4-Tetrachlorobenzene

> <CAS>
000634-66-2

> <VED1>
3.124

> <nHAcc>
0

> <MAXDP>
1.523

> <CIC0>
2.126

> <Log Koc Exp>
3.76

> <Log Koc Pred>
3.2

> <Hat>
0.044

> <Hat Cutoff>
0.161

> <ID Model>
348

> <Smiles>
c1cc(c(c(c1Cl)Cl)Cl)Cl

$$$$
2,3,4-Trichloroaniline
  SciTegic03251110552D

 10 10  0  0  0  0            999 V2000
    0.0000    0.0000    0.0000 Cl  0  0
    0.0000    0.0000    0.0000 C   0  0
    0.0000    0.0000    0.0000 C   0  0
    0.0000    0.0000    0.0000 Cl  0  0
    0.0000    0.0000    0.0000 C   0  0
    0.0000    0.0000    0.0000 C   0  0
    0.0000    0.0000    0.0000 C   0  0
    0.0000    0.0000    0.0000 C   0  0
    0.0000    0.0000    0.0000 N   0  0
    0.0000    0.0000    0.0000 Cl  0  0
  1  2  1  0
  2  8  1  0
  2  3  2  3
  3  4  1  0
  3  5  1  0
  5  6  2  3
  5 10  1  0
  6  7  1  0
  6  9  1  0
  7  8  2  3
M  END
> <Name>
2,3,4-Trichloroaniline

> <CAS>
000634-67-3

> <VED1>
3.124

> <nHAcc>
1

> <MAXDP>
1.53

> <CIC0>
2.019

> <Log Koc Exp>
2.63

> <Log Koc Pred>
2.9

> <Hat>
0.039

> <Hat Cutoff>
0.161

> <ID Model>
349

> <Smiles>
Clc1c(Cl)c(c(cc1)N)Cl

$$$$
1,2,3,5-Tetrachlorobenzene
  SciTegic03251110552D

 10 10  0  0  0  0            999 V2000
    0.0000    0.0000    0.0000 C   0  0
    0.0000    0.0000    0.0000 C   0  0
    0.0000    0.0000    0.0000 C   0  0
    0.0000    0.0000    0.0000 C   0  0
    0.0000    0.0000    0.0000 C   0  0
    0.0000    0.0000    0.0000 C   0  0
    0.0000    0.0000    0.0000 Cl  0  0
    0.0000    0.0000    0.0000 Cl  0  0
    0.0000    0.0000    0.0000 Cl  0  0
    0.0000    0.0000    0.0000 Cl  0  0
  1  6  1  0
  1  2  2  3
  1 10  1  0
  2  3  1  0
  3  4  2  3
  3  9  1  0
  4  5  1  0
  4  8  1  0
  5  6  2  3
  5  7  1  0
M  END
> <Name>
1,2,3,5-Tetrachlorobenzene

> <CAS>
000634-90-2

> <VED1>
3.123

> <nHAcc>
0

> <MAXDP>
1.516

> <CIC0>
2.126

> <Log Koc Exp>
3.35

> <Log Koc Pred>
3.2

> <Hat>
0.044

> <Hat Cutoff>
0.161

> <ID Model>
351

> <Smiles>
c1(cc(c(c(c1)Cl)Cl)Cl)Cl

$$$$
Pentafluorophenyl methyl sufone
  SciTegic03251110552D

 15 15  0  0  0  0            999 V2000
    0.0000    0.0000    0.0000 C   0  0
    0.0000    0.0000    0.0000 C   0  0
    0.0000    0.0000    0.0000 C   0  0
    0.0000    0.0000    0.0000 C   0  0
    0.0000    0.0000    0.0000 C   0  0
    0.0000    0.0000    0.0000 C   0  0
    0.0000    0.0000    0.0000 F   0  0
    0.0000    0.0000    0.0000 S   0  0
    0.0000    0.0000    0.0000 O   0  0
    0.0000    0.0000    0.0000 O   0  0
    0.0000    0.0000    0.0000 C   0  0
    0.0000    0.0000    0.0000 F   0  0
    0.0000    0.0000    0.0000 F   0  0
    0.0000    0.0000    0.0000 F   0  0
    0.0000    0.0000    0.0000 F   0  0
  1  6  1  0
  1  2  2  3
  1 15  1  0
  2  3  1  0
  2 14  1  0
  3  4  2  3
  3 13  1  0
  4  5  1  0
  4 12  1  0
  5  6  2  3
  5  8  1  0
  6  7  1  0
  8  9  2  0
  8 10  2  0
  8 11  1  0
M  END
> <Name>
Pentafluorophenyl methyl sufone

> <CAS>
000651-85-4

> <VED1>
3.822

> <nHAcc>
7

> <MAXDP>
4.798

> <CIC0>
2.112

> <Log Koc Exp>
1.46

> <Log Koc Pred>
1.3

> <Hat>
0.077

> <Hat Cutoff>
0.161

> <ID Model>
353

> <Smiles>
c1(c(c(c(c(c1F)S(=O)(=O)C)F)F)F)F

$$$$
2-Fluorophenylurea
  SciTegic03251110552D

 11 11  0  0  0  0            999 V2000
    0.0000    0.0000    0.0000 C   0  0
    0.0000    0.0000    0.0000 C   0  0
    0.0000    0.0000    0.0000 C   0  0
    0.0000    0.0000    0.0000 C   0  0
    0.0000    0.0000    0.0000 C   0  0
    0.0000    0.0000    0.0000 C   0  0
    0.0000    0.0000    0.0000 F   0  0
    0.0000    0.0000    0.0000 N   0  0
    0.0000    0.0000    0.0000 C   0  0
    0.0000    0.0000    0.0000 O   0  0
    0.0000    0.0000    0.0000 N   0  0
  1  6  1  0
  1  2  2  3
  2  3  1  0
  2  8  1  0
  3  4  2  3
  3  7  1  0
  4  5  1  0
  5  6  2  3
  8  9  1  0
  9 10  2  0
  9 11  1  0
M  END
> <Name>
2-Fluorophenylurea

> <CAS>
000656-31-5

> <VED1>
3.271

> <nHAcc>
4

> <MAXDP>
4.68

> <CIC0>
2.295

> <Log Koc Exp>
1.32

> <Log Koc Pred>
1.13

> <Hat>
0.042

> <Hat Cutoff>
0.161

> <ID Model>
354

> <Smiles>
c1c(c(ccc1)F)NC(=O)N

$$$$
Simatone
  SciTegic03251110552D

 14 14  0  0  0  0            999 V2000
    0.0000    0.0000    0.0000 N   0  0
    0.0000    0.0000    0.0000 C   0  0
    0.0000    0.0000    0.0000 N   0  0
    0.0000    0.0000    0.0000 C   0  0
    0.0000    0.0000    0.0000 N   0  0
    0.0000    0.0000    0.0000 C   0  0
    0.0000    0.0000    0.0000 N   0  0
    0.0000    0.0000    0.0000 C   0  0
    0.0000    0.0000    0.0000 C   0  0
    0.0000    0.0000    0.0000 O   0  0
    0.0000    0.0000    0.0000 C   0  0
    0.0000    0.0000    0.0000 N   0  0
    0.0000    0.0000    0.0000 C   0  0
    0.0000    0.0000    0.0000 C   0  0
  1  6  1  0
  1  2  2  3
  2  3  1  0
  2 12  1  0
  3  4  2  3
  4  5  1  0
  4 10  1  0
  5  6  2  3
  6  7  1  0
  7  8  1  0
  8  9  1  0
 10 11  1  0
 12 13  1  0
 13 14  1  0
M  END
> <Name>
Simatone

> <CAS>
000673-04-1

> <VED1>
3.669

> <nHAcc>
6

> <MAXDP>
1.446

> <CIC0>
3.249

> <Log Koc Exp>
2.34

> <Log Koc Pred>
1.98

> <Hat>
0.15

> <Hat Cutoff>
0.161

> <ID Model>
356

> <Smiles>
n1c(nc(nc1NCC)OC)NCC

$$$$
2,3,5-Trimethylphenol
  SciTegic03251110552D

 10 10  0  0  0  0            999 V2000
    0.0000    0.0000    0.0000 C   0  0
    0.0000    0.0000    0.0000 C   0  0
    0.0000    0.0000    0.0000 C   0  0
    0.0000    0.0000    0.0000 C   0  0
    0.0000    0.0000    0.0000 C   0  0
    0.0000    0.0000    0.0000 C   0  0
    0.0000    0.0000    0.0000 O   0  0
    0.0000    0.0000    0.0000 C   0  0
    0.0000    0.0000    0.0000 C   0  0
    0.0000    0.0000    0.0000 C   0  0
  1  6  1  0
  1  2  2  3
  1 10  1  0
  2  3  1  0
  2  9  1  0
  3  4  2  3
  4  5  1  0
  4  8  1  0
  5  6  2  3
  6  7  1  0
M  END
> <Name>
2,3,5-Trimethylphenol

> <CAS>
000697-82-5

> <VED1>
3.123

> <nHAcc>
1

> <MAXDP>
3.281

> <CIC0>
3.252

> <Log Koc Exp>
3.61

> <Log Koc Pred>
1.95

> <Hat>
0.046

> <Hat Cutoff>
0.161

> <ID Model>
358

> <Smiles>
c1(c(cc(cc1O)C)C)C

$$$$
Propanil
  SciTegic03251110552D

 13 13  0  0  0  0            999 V2000
    0.0000    0.0000    0.0000 C   0  0
    0.0000    0.0000    0.0000 C   0  0
    0.0000    0.0000    0.0000 C   0  0
    0.0000    0.0000    0.0000 C   0  0
    0.0000    0.0000    0.0000 C   0  0
    0.0000    0.0000    0.0000 C   0  0
    0.0000    0.0000    0.0000 Cl  0  0
    0.0000    0.0000    0.0000 Cl  0  0
    0.0000    0.0000    0.0000 N   0  0
    0.0000    0.0000    0.0000 C   0  0
    0.0000    0.0000    0.0000 O   0  0
    0.0000    0.0000    0.0000 C   0  0
    0.0000    0.0000    0.0000 C   0  0
  1  6  1  0
  1  2  2  3
  2  3  1  0
  2  9  1  0
  3  4  2  3
  4  5  1  0
  5  6  2  3
  5  8  1  0
  6  7  1  0
  9 10  1  0
 10 11  2  0
 10 12  1  0
 12 13  1  0
M  END
> <Name>
Propanil

> <CAS>
000709-98-8

> <VED1>
3.55

> <nHAcc>
2

> <MAXDP>
3.99

> <CIC0>
2.684

> <Log Koc Exp>
2.18

> <Log Koc Pred>
2.48

> <Hat>
0.03

> <Hat Cutoff>
0.161

> <ID Model>
359

> <Smiles>
c1c(ccc(c1Cl)Cl)NC(=O)CC

$$$$
Anthracene-9-carboxylic acid
  SciTegic03251110552D

 17 19  0  0  0  0            999 V2000
    0.0000    0.0000    0.0000 C   0  0
    0.0000    0.0000    0.0000 C   0  0
    0.0000    0.0000    0.0000 C   0  0
    0.0000    0.0000    0.0000 C   0  0
    0.0000    0.0000    0.0000 C   0  0
    0.0000    0.0000    0.0000 C   0  0
    0.0000    0.0000    0.0000 C   0  0
    0.0000    0.0000    0.0000 C   0  0
    0.0000    0.0000    0.0000 C   0  0
    0.0000    0.0000    0.0000 C   0  0
    0.0000    0.0000    0.0000 C   0  0
    0.0000    0.0000    0.0000 O   0  0
    0.0000    0.0000    0.0000 O   0  0
    0.0000    0.0000    0.0000 C   0  0
    0.0000    0.0000    0.0000 C   0  0
    0.0000    0.0000    0.0000 C   0  0
    0.0000    0.0000    0.0000 C   0  0
  1  6  1  0
  1  2  2  3
  2  3  1  0
  3  4  2  3
  4 10  1  0
  4  5  1  0
  5  6  2  3
  5  7  1  0
  7  8  2  3
  8 17  1  0
  8  9  1  0
  9 10  2  3
  9 14  1  0
 10 11  1  0
 11 12  2  0
 11 13  1  0
 14 15  2  3
 15 16  1  0
 16 17  2  3
M  END
> <Name>
Anthracene-9-carboxylic acid

> <CAS>
000723-62-6

> <VED1>
4.07

> <nHAcc>
2

> <MAXDP>
4.429

> <CIC0>
3.475

> <Log Koc Exp>
2.69

> <Log Koc Pred>
3.17

> <Hat>
0.04

> <Hat Cutoff>
0.161

> <ID Model>
360

> <Smiles>
c1ccc2c(c1)cc1c(c2C(=O)O)cccc1

$$$$
Phosmet
  SciTegic03251110552D

 19 20  0  0  0  0            999 V2000
    0.0000    0.0000    0.0000 C   0  0
    0.0000    0.0000    0.0000 O   0  0
    0.0000    0.0000    0.0000 P   0  0
    0.0000    0.0000    0.0000 S   0  0
    0.0000    0.0000    0.0000 O   0  0
    0.0000    0.0000    0.0000 C   0  0
    0.0000    0.0000    0.0000 S   0  0
    0.0000    0.0000    0.0000 C   0  0
    0.0000    0.0000    0.0000 N   0  0
    0.0000    0.0000    0.0000 C   0  0
    0.0000    0.0000    0.0000 O   0  0
    0.0000    0.0000    0.0000 C   0  0
    0.0000    0.0000    0.0000 C   0  0
    0.0000    0.0000    0.0000 C   0  0
    0.0000    0.0000    0.0000 O   0  0
    0.0000    0.0000    0.0000 C   0  0
    0.0000    0.0000    0.0000 C   0  0
    0.0000    0.0000    0.0000 C   0  0
    0.0000    0.0000    0.0000 C   0  0
  1  2  1  0
  2  3  1  0
  3  4  2  0
  3  5  1  0
  3  7  1  0
  5  6  1  0
  7  8  1  0
  8  9  1  0
  9 14  1  0
  9 10  1  0
 10 11  2  0
 10 12  1  0
 12 19  1  0
 12 13  2  3
 13 14  1  0
 13 16  1  0
 14 15  2  0
 16 17  2  3
 17 18  1  0
 18 19  2  3
M  END
> <Name>
Phosmet

> <CAS>
000732-11-6

> <VED1>
4.298

> <nHAcc>
5

> <MAXDP>
5.089

> <CIC0>
2.938

> <Log Koc Exp>
2.85

> <Log Koc Pred>
2.61

> <Hat>
0.035

> <Hat Cutoff>
0.161

> <ID Model>
361

> <Smiles>
COP(=S)(OC)SCN1C(=O)c2c(C1=O)cccc2

$$$$
Bensulide
  SciTegic03251110552D

 23 23  0  0  0  0            999 V2000
    0.0000    0.0000    0.0000 C   0  0
    0.0000    0.0000    0.0000 C   0  0
    0.0000    0.0000    0.0000 C   0  0
    0.0000    0.0000    0.0000 C   0  0
    0.0000    0.0000    0.0000 C   0  0
    0.0000    0.0000    0.0000 C   0  0
    0.0000    0.0000    0.0000 S   0  0
    0.0000    0.0000    0.0000 O   0  0
    0.0000    0.0000    0.0000 O   0  0
    0.0000    0.0000    0.0000 N   0  0
    0.0000    0.0000    0.0000 C   0  0
    0.0000    0.0000    0.0000 C   0  0
    0.0000    0.0000    0.0000 S   0  0
    0.0000    0.0000    0.0000 P   0  0
    0.0000    0.0000    0.0000 S   0  0
    0.0000    0.0000    0.0000 O   0  0
    0.0000    0.0000    0.0000 C   0  0
    0.0000    0.0000    0.0000 C   0  0
    0.0000    0.0000    0.0000 C   0  0
    0.0000    0.0000    0.0000 O   0  0
    0.0000    0.0000    0.0000 C   0  0
    0.0000    0.0000    0.0000 C   0  0
    0.0000    0.0000    0.0000 C   0  0
  1  6  1  0
  1  2  2  3
  2  3  1  0
  3  4  2  3
  4  5  1  0
  4  7  1  0
  5  6  2  3
  7  8  2  0
  7  9  2  0
  7 10  1  0
 10 11  1  0
 11 12  1  0
 12 13  1  0
 13 14  1  0
 14 15  2  0
 14 16  1  0
 14 20  1  0
 16 17  1  0
 17 18  1  0
 17 19  1  0
 20 21  1  0
 21 22  1  0
 21 23  1  0
M  END
> <Name>
Bensulide

> <CAS>
000741-58-2

> <VED1>
4.732

> <nHAcc>
5

> <MAXDP>
5.112

> <CIC0>
3.747

> <Log Koc Exp>
3.5

> <Log Koc Pred>
3.25

> <Hat>
0.034

> <Hat Cutoff>
0.161

> <ID Model>
362

> <Smiles>
c1ccc(cc1)S(=O)(=O)NCCSP(=S)(OC(C)C)OC(C)C

$$$$
EPTC
  SciTegic03251110552D

 12 11  0  0  0  0            999 V2000
    0.0000    0.0000    0.0000 C   0  0
    0.0000    0.0000    0.0000 C   0  0
    0.0000    0.0000    0.0000 S   0  0
    0.0000    0.0000    0.0000 C   0  0
    0.0000    0.0000    0.0000 O   0  0
    0.0000    0.0000    0.0000 N   0  0
    0.0000    0.0000    0.0000 C   0  0
    0.0000    0.0000    0.0000 C   0  0
    0.0000    0.0000    0.0000 C   0  0
    0.0000    0.0000    0.0000 C   0  0
    0.0000    0.0000    0.0000 C   0  0
    0.0000    0.0000    0.0000 C   0  0
  1  2  1  0
  2  3  1  0
  3  4  1  0
  4  5  2  0
  4  6  1  0
  6  7  1  0
  6 10  1  0
  7  8  1  0
  8  9  1  0
 10 11  1  0
 11 12  1  0
M  END
> <Name>
EPTC

> <CAS>
000759-94-4

> <VED1>
3.396

> <nHAcc>
2

> <MAXDP>
4.412

> <CIC0>
3.524

> <Log Koc Exp>
2.38

> <Log Koc Pred>
1.75

> <Hat>
0.062

> <Hat Cutoff>
0.161

> <ID Model>
363

> <Smiles>
CCSC(=O)N(CCC)CCC

$$$$
3-Fluorophenylurea
  SciTegic03251110552D

 11 11  0  0  0  0            999 V2000
    0.0000    0.0000    0.0000 C   0  0
    0.0000    0.0000    0.0000 C   0  0
    0.0000    0.0000    0.0000 C   0  0
    0.0000    0.0000    0.0000 C   0  0
    0.0000    0.0000    0.0000 C   0  0
    0.0000    0.0000    0.0000 C   0  0
    0.0000    0.0000    0.0000 N   0  0
    0.0000    0.0000    0.0000 C   0  0
    0.0000    0.0000    0.0000 O   0  0
    0.0000    0.0000    0.0000 N   0  0
    0.0000    0.0000    0.0000 F   0  0
  1  6  1  0
  1  2  2  3
  1 11  1  0
  2  3  1  0
  3  4  2  3
  4  5  1  0
  5  6  2  3
  5  7  1  0
  7  8  1  0
  8  9  2  0
  8 10  1  0
M  END
> <Name>
3-Fluorophenylurea

> <CAS>
000770-19-4

> <VED1>
3.272

> <nHAcc>
4

> <MAXDP>
4.425

> <CIC0>
2.295

> <Log Koc Exp>
1.77

> <Log Koc Pred>
1.21

> <Hat>
0.036

> <Hat Cutoff>
0.161

> <ID Model>
364

> <Smiles>
c1(cccc(c1)NC(=O)N)F

$$$$
9-Methylanthracene
  SciTegic03251110552D

 15 17  0  0  0  0            999 V2000
    0.0000    0.0000    0.0000 C   0  0
    0.0000    0.0000    0.0000 C   0  0
    0.0000    0.0000    0.0000 C   0  0
    0.0000    0.0000    0.0000 C   0  0
    0.0000    0.0000    0.0000 C   0  0
    0.0000    0.0000    0.0000 C   0  0
    0.0000    0.0000    0.0000 C   0  0
    0.0000    0.0000    0.0000 C   0  0
    0.0000    0.0000    0.0000 C   0  0
    0.0000    0.0000    0.0000 C   0  0
    0.0000    0.0000    0.0000 C   0  0
    0.0000    0.0000    0.0000 C   0  0
    0.0000    0.0000    0.0000 C   0  0
    0.0000    0.0000    0.0000 C   0  0
    0.0000    0.0000    0.0000 C   0  0
  1  6  1  0
  1  2  2  3
  2  3  1  0
  3  4  2  3
  4 10  1  0
  4  5  1  0
  5  6  2  3
  5  7  1  0
  7  8  2  3
  7 15  1  0
  8 14  1  0
  8  9  1  0
  9 10  2  3
  9 11  1  0
 11 12  2  3
 12 13  1  0
 13 14  2  3
M  END
> <Name>
9-Methylanthracene

> <CAS>
000779-02-2

> <VED1>
3.83

> <nHAcc>
0

> <MAXDP>
0.262

> <CIC0>
3.764

> <Log Koc Exp>
4.81

> <Log Koc Pred>
4.54

> <Hat>
0.082

> <Hat Cutoff>
0.161

> <ID Model>
365

> <Smiles>
c1ccc2c(c1)c(c1c(c2)cccc1)C

$$$$
9-Acetylanthracene
  SciTegic03251110552D

 17 19  0  0  0  0            999 V2000
    0.0000    0.0000    0.0000 C   0  0
    0.0000    0.0000    0.0000 C   0  0
    0.0000    0.0000    0.0000 C   0  0
    0.0000    0.0000    0.0000 C   0  0
    0.0000    0.0000    0.0000 C   0  0
    0.0000    0.0000    0.0000 C   0  0
    0.0000    0.0000    0.0000 C   0  0
    0.0000    0.0000    0.0000 C   0  0
    0.0000    0.0000    0.0000 C   0  0
    0.0000    0.0000    0.0000 C   0  0
    0.0000    0.0000    0.0000 C   0  0
    0.0000    0.0000    0.0000 C   0  0
    0.0000    0.0000    0.0000 C   0  0
    0.0000    0.0000    0.0000 C   0  0
    0.0000    0.0000    0.0000 C   0  0
    0.0000    0.0000    0.0000 O   0  0
    0.0000    0.0000    0.0000 C   0  0
  1  6  1  0
  1  2  2  3
  2  3  1  0
  3  4  2  3
  4 10  1  0
  4  5  1  0
  5  6  2  3
  5  7  1  0
  7  8  2  3
  7 15  1  0
  8 14  1  0
  8  9  1  0
  9 10  2  3
  9 11  1  0
 11 12  2  3
 12 13  1  0
 13 14  2  3
 15 16  2  0
 15 17  1  0
M  END
> <Name>
9-Acetylanthracene

> <CAS>
000784-04-3

> <VED1>
4.07

> <nHAcc>
1

> <MAXDP>
4.873

> <CIC0>
3.69

> <Log Koc Exp>
3.58

> <Log Koc Pred>
3.31

> <Hat>
0.083

> <Hat Cutoff>
0.161

> <ID Model>
366

> <Smiles>
c1ccc2c(c1)c(c1c(c2)cccc1)C(=O)C

$$$$
Carbophenothion
  SciTegic03251110552D

 18 18  0  0  0  0            999 V2000
    0.0000    0.0000    0.0000 S   0  0
    0.0000    0.0000    0.0000 C   0  0
    0.0000    0.0000    0.0000 S   0  0
    0.0000    0.0000    0.0000 P   0  0
    0.0000    0.0000    0.0000 S   0  0
    0.0000    0.0000    0.0000 O   0  0
    0.0000    0.0000    0.0000 C   0  0
    0.0000    0.0000    0.0000 C   0  0
    0.0000    0.0000    0.0000 O   0  0
    0.0000    0.0000    0.0000 C   0  0
    0.0000    0.0000    0.0000 C   0  0
    0.0000    0.0000    0.0000 C   0  0
    0.0000    0.0000    0.0000 C   0  0
    0.0000    0.0000    0.0000 C   0  0
    0.0000    0.0000    0.0000 C   0  0
    0.0000    0.0000    0.0000 C   0  0
    0.0000    0.0000    0.0000 C   0  0
    0.0000    0.0000    0.0000 Cl  0  0
  1  2  1  0
  1 12  1  0
  2  3  1  0
  3  4  1  0
  4  5  2  0
  4  6  1  0
  4  9  1  0
  6  7  1  0
  7  8  1  0
  9 10  1  0
 10 11  1  0
 12 17  1  0
 12 13  2  3
 13 14  1  0
 14 15  2  3
 15 16  1  0
 15 18  1  0
 16 17  2  3
M  END
> <Name>
Carbophenothion

> <CAS>
000786-19-6

> <VED1>
4.178

> <nHAcc>
2

> <MAXDP>
2.059

> <CIC0>
3.2

> <Log Koc Exp>
4.66

> <Log Koc Pred>
4.22

> <Hat>
0.038

> <Hat Cutoff>
0.161

> <ID Model>
367

> <Smiles>
S(CSP(=S)(OCC)OCC)c1ccc(cc1)Cl

$$$$
Cyclohexylbenzene
  SciTegic03251110552D

 12 13  0  0  0  0            999 V2000
    0.0000    0.0000    0.0000 C   0  0
    0.0000    0.0000    0.0000 C   0  0
    0.0000    0.0000    0.0000 C   0  0
    0.0000    0.0000    0.0000 C   0  0
    0.0000    0.0000    0.0000 C   0  0
    0.0000    0.0000    0.0000 C   0  0
    0.0000    0.0000    0.0000 C   0  0
    0.0000    0.0000    0.0000 C   0  0
    0.0000    0.0000    0.0000 C   0  0
    0.0000    0.0000    0.0000 C   0  0
    0.0000    0.0000    0.0000 C   0  0
    0.0000    0.0000    0.0000 C   0  0
  1  6  1  0
  1  2  2  3
  2  3  1  0
  3  4  2  3
  4  5  1  0
  4  7  1  0
  5  6  2  3
  7 12  1  0
  7  8  1  0
  8  9  1  0
  9 10  1  0
 10 11  1  0
 11 12  1  0
M  END
> <Name>
Cyclohexylbenzene

> <CAS>
000827-52-1

> <VED1>
3.425

> <nHAcc>
0

> <MAXDP>
0.274

> <CIC0>
3.822

> <Log Koc Exp>
4.18

> <Log Koc Pred>
3.66

> <Hat>
0.09

> <Hat Cutoff>
0.161

> <ID Model>
368

> <Smiles>
c1ccc(cc1)C1CCCCC1

$$$$
1-Phenylazo-2-naphthalenol
  SciTegic03251110552D

 19 21  0  0  0  0            999 V2000
    0.0000    0.0000    0.0000 C   0  0
    0.0000    0.0000    0.0000 C   0  0
    0.0000    0.0000    0.0000 C   0  0
    0.0000    0.0000    0.0000 C   0  0
    0.0000    0.0000    0.0000 C   0  0
    0.0000    0.0000    0.0000 C   0  0
    0.0000    0.0000    0.0000 N   0  0
    0.0000    0.0000    0.0000 N   0  0
    0.0000    0.0000    0.0000 C   0  0
    0.0000    0.0000    0.0000 C   0  0
    0.0000    0.0000    0.0000 C   0  0
    0.0000    0.0000    0.0000 C   0  0
    0.0000    0.0000    0.0000 C   0  0
    0.0000    0.0000    0.0000 C   0  0
    0.0000    0.0000    0.0000 O   0  0
    0.0000    0.0000    0.0000 C   0  0
    0.0000    0.0000    0.0000 C   0  0
    0.0000    0.0000    0.0000 C   0  0
    0.0000    0.0000    0.0000 C   0  0
  1  6  1  0
  1  2  2  3
  2  3  1  0
  3  4  2  3
  3  7  1  0
  4  5  1  0
  5  6  2  3
  7  8  2  3
  8  9  1  0
  9 14  1  0
  9 10  2  3
 10 19  1  0
 10 11  1  0
 11 12  2  3
 11 16  1  0
 12 13  1  0
 13 14  2  3
 14 15  1  0
 16 17  2  3
 17 18  1  0
 18 19  2  3
M  END
> <Name>
1-Phenylazo-2-naphthalenol

> <CAS>
000842-07-9

> <VED1>
4.302

> <nHAcc>
3

> <MAXDP>
3.933

> <CIC0>
3.517

> <Log Koc Exp>
3.58

> <Log Koc Pred>
3.46

> <Hat>
0.022

> <Hat Cutoff>
0.161

> <ID Model>
370

> <Smiles>
c1cc(ccc1)N=Nc1c2c(ccc1O)cccc2

$$$$
2,3,4,5-Tetrachloronitrobenzene
  SciTegic03251110552D

 13 13  0  0  0  0            999 V2000
    0.0000    0.0000    0.0000 O   0  0
    0.0000    0.0000    0.0000 N   0  0
    0.0000    0.0000    0.0000 C   0  0
    0.0000    0.0000    0.0000 C   0  0
    0.0000    0.0000    0.0000 C   0  0
    0.0000    0.0000    0.0000 C   0  0
    0.0000    0.0000    0.0000 C   0  0
    0.0000    0.0000    0.0000 C   0  0
    0.0000    0.0000    0.0000 Cl  0  0
    0.0000    0.0000    0.0000 Cl  0  0
    0.0000    0.0000    0.0000 Cl  0  0
    0.0000    0.0000    0.0000 Cl  0  0
    0.0000    0.0000    0.0000 O   0  0
  1  2  1  0
  2  3  1  0
  2 13  1  0
  3  8  1  0
  3  4  2  3
  4  5  1  0
  5  6  2  3
  5 12  1  0
  6  7  1  0
  6 11  1  0
  7  8  2  3
  7 10  1  0
  8  9  1  0
M  END
> <Name>
2,3,4,5-Tetrachloronitrobenzene

> <CAS>
000879-39-0

> <VED1>
3.554

> <nHAcc>
2

> <MAXDP>
3.398

> <CIC0>
1.822

> <Log Koc Exp>
4.23

> <Log Koc Pred>
2.95

> <Hat>
0.076

> <Hat Cutoff>
0.161

> <ID Model>
371

> <Smiles>
ON(c1cc(c(c(c1Cl)Cl)Cl)Cl)O

$$$$
Terbutryn
  SciTegic03251110552D

 16 16  0  0  0  0            999 V2000
    0.0000    0.0000    0.0000 N   0  0
    0.0000    0.0000    0.0000 C   0  0
    0.0000    0.0000    0.0000 N   0  0
    0.0000    0.0000    0.0000 C   0  0
    0.0000    0.0000    0.0000 N   0  0
    0.0000    0.0000    0.0000 C   0  0
    0.0000    0.0000    0.0000 S   0  0
    0.0000    0.0000    0.0000 C   0  0
    0.0000    0.0000    0.0000 N   0  0
    0.0000    0.0000    0.0000 C   0  0
    0.0000    0.0000    0.0000 C   0  0
    0.0000    0.0000    0.0000 N   0  0
    0.0000    0.0000    0.0000 C   0  0
    0.0000    0.0000    0.0000 C   0  0
    0.0000    0.0000    0.0000 C   0  0
    0.0000    0.0000    0.0000 C   0  0
  1  6  1  0
  1  2  2  3
  2  3  1  0
  2 12  1  0
  3  4  2  3
  4  5  1  0
  4  9  1  0
  5  6  2  3
  6  7  1  0
  7  8  1  0
  9 10  1  0
 10 11  1  0
 12 13  1  0
 13 14  1  0
 13 15  1  0
 13 16  1  0
M  END
> <Name>
Terbutryn

> <CAS>
000886-50-0

> <VED1>
3.932

> <nHAcc>
5

> <MAXDP>
1.309

> <CIC0>
3.587

> <Log Koc Exp>
2.85

> <Log Koc Pred>
2.8

> <Hat>
0.12

> <Hat Cutoff>
0.161

> <ID Model>
372

> <Smiles>
n1c(nc(nc1SC)NCC)NC(C)(C)C

$$$$
3-Phenyl-1-cyclohexylurea
  SciTegic03251110552D

 16 17  0  0  0  0            999 V2000
    0.0000    0.0000    0.0000 C   0  0
    0.0000    0.0000    0.0000 C   0  0
    0.0000    0.0000    0.0000 C   0  0
    0.0000    0.0000    0.0000 C   0  0
    0.0000    0.0000    0.0000 C   0  0
    0.0000    0.0000    0.0000 C   0  0
    0.0000    0.0000    0.0000 N   0  0
    0.0000    0.0000    0.0000 C   0  0
    0.0000    0.0000    0.0000 O   0  0
    0.0000    0.0000    0.0000 N   0  0
    0.0000    0.0000    0.0000 C   0  0
    0.0000    0.0000    0.0000 C   0  0
    0.0000    0.0000    0.0000 C   0  0
    0.0000    0.0000    0.0000 C   0  0
    0.0000    0.0000    0.0000 C   0  0
    0.0000    0.0000    0.0000 C   0  0
  1  6  1  0
  1  2  2  3
  2  3  1  0
  3  4  2  3
  4  5  1  0
  5  6  2  3
  6  7  1  0
  7  8  1  0
  8  9  2  0
  8 10  1  0
 10 11  1  0
 11 16  1  0
 11 12  1  0
 12 13  1  0
 13 14  1  0
 14 15  1  0
 15 16  1  0
M  END
> <Name>
3-Phenyl-1-cyclohexylurea

> <CAS>
000886-59-9

> <VED1>
3.95

> <nHAcc>
3

> <MAXDP>
4.658

> <CIC0>
3.681

> <Log Koc Exp>
2.07

> <Log Koc Pred>
2.45

> <Hat>
0.037

> <Hat Cutoff>
0.161

> <ID Model>
373

> <Smiles>
c1ccccc1NC(=O)NC1CCCCC1

$$$$
Demeton-S-methyl
  SciTegic03251110552D

 12 11  0  0  0  0            999 V2000
    0.0000    0.0000    0.0000 C   0  0
    0.0000    0.0000    0.0000 O   0  0
    0.0000    0.0000    0.0000 P   0  0
    0.0000    0.0000    0.0000 O   0  0
    0.0000    0.0000    0.0000 S   0  0
    0.0000    0.0000    0.0000 C   0  0
    0.0000    0.0000    0.0000 C   0  0
    0.0000    0.0000    0.0000 S   0  0
    0.0000    0.0000    0.0000 C   0  0
    0.0000    0.0000    0.0000 C   0  0
    0.0000    0.0000    0.0000 O   0  0
    0.0000    0.0000    0.0000 C   0  0
  1  2  1  0
  2  3  1  0
  3  4  2  0
  3  5  1  0
  3 11  1  0
  5  6  1  0
  6  7  1  0
  7  8  1  0
  8  9  1  0
  9 10  1  0
 11 12  1  0
M  END
> <Name>
Demeton-S-methyl

> <CAS>
000919-86-8

> <VED1>
3.404

> <nHAcc>
3

> <MAXDP>
4.423

> <CIC0>
2.995

> <Log Koc Exp>
1.49

> <Log Koc Pred>
1.6

> <Hat>
0.032

> <Hat Cutoff>
0.161

> <ID Model>
374

> <Smiles>
COP(=O)(SCCSCC)OC

$$$$
2,3,5-Trichlorophenol
  SciTegic03251110552D

 10 10  0  0  0  0            999 V2000
    0.0000    0.0000    0.0000 C   0  0
    0.0000    0.0000    0.0000 C   0  0
    0.0000    0.0000    0.0000 C   0  0
    0.0000    0.0000    0.0000 C   0  0
    0.0000    0.0000    0.0000 C   0  0
    0.0000    0.0000    0.0000 C   0  0
    0.0000    0.0000    0.0000 Cl  0  0
    0.0000    0.0000    0.0000 Cl  0  0
    0.0000    0.0000    0.0000 Cl  0  0
    0.0000    0.0000    0.0000 O   0  0
  1  6  1  0
  1  2  2  3
  1 10  1  0
  2  3  1  0
  3  4  2  3
  3  9  1  0
  4  5  1  0
  5  6  2  3
  5  8  1  0
  6  7  1  0
M  END
> <Name>
2,3,5-Trichlorophenol

> <CAS>
000933-78-8

> <VED1>
3.123

> <nHAcc>
1

> <MAXDP>
2.98

> <CIC0>
1.925

> <Log Koc Exp>
3.61

> <Log Koc Pred>
2.48

> <Hat>
0.05

> <Hat Cutoff>
0.161

> <ID Model>
375

> <Smiles>
c1(cc(cc(c1Cl)Cl)Cl)O

$$$$
Fonofos
  SciTegic03251110552D

 14 14  0  0  0  0            999 V2000
    0.0000    0.0000    0.0000 C   0  0
    0.0000    0.0000    0.0000 C   0  0
    0.0000    0.0000    0.0000 P   0  0
    0.0000    0.0000    0.0000 S   0  0
    0.0000    0.0000    0.0000 S   0  0
    0.0000    0.0000    0.0000 C   0  0
    0.0000    0.0000    0.0000 C   0  0
    0.0000    0.0000    0.0000 C   0  0
    0.0000    0.0000    0.0000 C   0  0
    0.0000    0.0000    0.0000 C   0  0
    0.0000    0.0000    0.0000 C   0  0
    0.0000    0.0000    0.0000 O   0  0
    0.0000    0.0000    0.0000 C   0  0
    0.0000    0.0000    0.0000 C   0  0
  1  2  1  0
  2  3  1  0
  3  4  2  0
  3  5  1  0
  3 12  1  0
  5  6  1  0
  6 11  1  0
  6  7  2  3
  7  8  1  0
  8  9  2  3
  9 10  1  0
 10 11  2  3
 12 13  1  0
 13 14  1  0
M  END
> <Name>
Fonofos

> <CAS>
000944-22-9

> <VED1>
3.684

> <nHAcc>
1

> <MAXDP>
2.171

> <CIC0>
3.235

> <Log Koc Exp>
3.32

> <Log Koc Pred>
3.48

> <Hat>
0.022

> <Hat Cutoff>
0.161

> <ID Model>
377

> <Smiles>
CCP(=S)(Sc1ccccc1)OCC

$$$$
Methidathion
  SciTegic03251110552D

 16 16  0  0  0  0            999 V2000
    0.0000    0.0000    0.0000 C   0  0
    0.0000    0.0000    0.0000 O   0  0
    0.0000    0.0000    0.0000 P   0  0
    0.0000    0.0000    0.0000 S   0  0
    0.0000    0.0000    0.0000 O   0  0
    0.0000    0.0000    0.0000 C   0  0
    0.0000    0.0000    0.0000 S   0  0
    0.0000    0.0000    0.0000 C   0  0
    0.0000    0.0000    0.0000 N   0  0
    0.0000    0.0000    0.0000 N   0  0
    0.0000    0.0000    0.0000 C   0  0
    0.0000    0.0000    0.0000 S   0  0
    0.0000    0.0000    0.0000 C   0  0
    0.0000    0.0000    0.0000 O   0  0
    0.0000    0.0000    0.0000 O   0  0
    0.0000    0.0000    0.0000 C   0  0
  1  2  1  0
  2  3  1  0
  3  4  2  0
  3  5  1  0
  3  7  1  0
  5  6  1  0
  7  8  1  0
  8  9  1  0
  9 13  1  0
  9 10  1  0
 10 11  2  3
 11 12  1  0
 11 15  1  0
 12 13  1  0
 13 14  2  0
 15 16  1  0
M  END
> <Name>
Methidathion

> <CAS>
000950-37-8

> <VED1>
3.939

> <nHAcc>
6

> <MAXDP>
4.415

> <CIC0>
2.53

> <Log Koc Exp>
2.03

> <Log Koc Pred>
1.86

> <Hat>
0.042

> <Hat Cutoff>
0.161

> <ID Model>
378

> <Smiles>
COP(=S)(OC)SCn1nc(sc1=O)OC

$$$$
Carbophenothion-methyl
  SciTegic03251110552D

 16 16  0  0  0  0            999 V2000
    0.0000    0.0000    0.0000 C   0  0
    0.0000    0.0000    0.0000 C   0  0
    0.0000    0.0000    0.0000 C   0  0
    0.0000    0.0000    0.0000 C   0  0
    0.0000    0.0000    0.0000 C   0  0
    0.0000    0.0000    0.0000 C   0  0
    0.0000    0.0000    0.0000 S   0  0
    0.0000    0.0000    0.0000 C   0  0
    0.0000    0.0000    0.0000 S   0  0
    0.0000    0.0000    0.0000 P   0  0
    0.0000    0.0000    0.0000 S   0  0
    0.0000    0.0000    0.0000 O   0  0
    0.0000    0.0000    0.0000 C   0  0
    0.0000    0.0000    0.0000 O   0  0
    0.0000    0.0000    0.0000 C   0  0
    0.0000    0.0000    0.0000 Cl  0  0
  1  6  1  0
  1  2  2  3
  1 16  1  0
  2  3  1  0
  3  4  2  3
  4  5  1  0
  4  7  1  0
  5  6  2  3
  7  8  1  0
  8  9  1  0
  9 10  1  0
 10 11  2  0
 10 12  1  0
 10 14  1  0
 12 13  1  0
 14 15  1  0
M  END
> <Name>
Carbophenothion-methyl

> <CAS>
000953-17-3

> <VED1>
3.945

> <nHAcc>
2

> <MAXDP>
1.686

> <CIC0>
2.797

> <Log Koc Exp>
4.67

> <Log Koc Pred>
3.98

> <Hat>
0.043

> <Hat Cutoff>
0.161

> <ID Model>
379

> <Smiles>
c1(ccc(cc1)SCSP(=S)(OC)OC)Cl

$$$$
Diphenamid
  SciTegic03251110552D

 19 20  0  0  0  0            999 V2000
    0.0000    0.0000    0.0000 C   0  0
    0.0000    0.0000    0.0000 C   0  0
    0.0000    0.0000    0.0000 C   0  0
    0.0000    0.0000    0.0000 C   0  0
    0.0000    0.0000    0.0000 C   0  0
    0.0000    0.0000    0.0000 C   0  0
    0.0000    0.0000    0.0000 C   0  0
    0.0000    0.0000    0.0000 H   0  0
    0.0000    0.0000    0.0000 C   0  0
    0.0000    0.0000    0.0000 C   0  0
    0.0000    0.0000    0.0000 C   0  0
    0.0000    0.0000    0.0000 C   0  0
    0.0000    0.0000    0.0000 C   0  0
    0.0000    0.0000    0.0000 C   0  0
    0.0000    0.0000    0.0000 C   0  0
    0.0000    0.0000    0.0000 O   0  0
    0.0000    0.0000    0.0000 N   0  0
    0.0000    0.0000    0.0000 C   0  0
    0.0000    0.0000    0.0000 C   0  0
  1  6  1  0
  1  2  2  3
  2  3  1  0
  3  4  2  3
  4  5  1  0
  5  6  2  3
  5  7  1  0
  7  8  1  0
  7  9  1  0
  7 15  1  0
  9 14  1  0
  9 10  2  3
 10 11  1  0
 11 12  2  3
 12 13  1  0
 13 14  2  3
 15 16  2  0
 15 17  1  0
 17 18  1  0
 17 19  1  0
M  END
> <Name>
Diphenamid

> <CAS>
000957-51-7

> <VED1>
4.179

> <nHAcc>
2

> <MAXDP>
5.37

> <CIC0>
3.814

> <Log Koc Exp>
2.06

> <Log Koc Pred>
3

> <Hat>
0.078

> <Hat Cutoff>
0.161

> <ID Model>
380

> <Smiles>
c1cccc(c1)[C@@H](c1ccccc1)C(=O)N(C)C

$$$$
Stirofos
  SciTegic03251110552D

 19 19  0  0  0  0            999 V2000
    0.0000    0.0000    0.0000 P   0  0
    0.0000    0.0000    0.0000 O   0  0
    0.0000    0.0000    0.0000 O   0  0
    0.0000    0.0000    0.0000 C   0  0
    0.0000    0.0000    0.0000 C   0  0
    0.0000    0.0000    0.0000 Cl  0  0
    0.0000    0.0000    0.0000 C   0  0
    0.0000    0.0000    0.0000 C   0  0
    0.0000    0.0000    0.0000 C   0  0
    0.0000    0.0000    0.0000 C   0  0
    0.0000    0.0000    0.0000 C   0  0
    0.0000    0.0000    0.0000 C   0  0
    0.0000    0.0000    0.0000 Cl  0  0
    0.0000    0.0000    0.0000 Cl  0  0
    0.0000    0.0000    0.0000 Cl  0  0
    0.0000    0.0000    0.0000 O   0  0
    0.0000    0.0000    0.0000 C   0  0
    0.0000    0.0000    0.0000 O   0  0
    0.0000    0.0000    0.0000 C   0  0
  1  2  2  0
  1  3  1  0
  1 16  1  0
  1 18  1  0
  3  4  1  0
  4  5  2  3
  4  7  1  0
  5  6  1  0
  7 12  1  0
  7  8  2  3
  8  9  1  0
  8 15  1  0
  9 10  2  3
 10 11  1  0
 10 14  1  0
 11 12  2  3
 11 13  1  0
 16 17  1  0
 18 19  1  0
M  END
> <Name>
Stirofos

> <CAS>
000961-11-5

> <VED1>
4.294

> <nHAcc>
4

> <MAXDP>
4.888

> <CIC0>
2.777

> <Log Koc Exp>
3.07

> <Log Koc Pred>
3.06

> <Hat>
0.048

> <Hat Cutoff>
0.161

> <ID Model>
381

> <Smiles>
P(=O)(OC(=CCl)c1c(cc(c(c1)Cl)Cl)Cl)(OC)OC

$$$$
3-Phenyl-1-methylurea
  SciTegic03251110552D

 11 11  0  0  0  0            999 V2000
    0.0000    0.0000    0.0000 C   0  0
    0.0000    0.0000    0.0000 C   0  0
    0.0000    0.0000    0.0000 C   0  0
    0.0000    0.0000    0.0000 C   0  0
    0.0000    0.0000    0.0000 C   0  0
    0.0000    0.0000    0.0000 C   0  0
    0.0000    0.0000    0.0000 N   0  0
    0.0000    0.0000    0.0000 C   0  0
    0.0000    0.0000    0.0000 O   0  0
    0.0000    0.0000    0.0000 N   0  0
    0.0000    0.0000    0.0000 C   0  0
  1  6  1  0
  1  2  2  3
  2  3  1  0
  2  7  1  0
  3  4  2  3
  4  5  1  0
  5  6  2  3
  7  8  1  0
  8  9  2  0
  8 10  1  0
 10 11  1  0
M  END
> <Name>
3-Phenyl-1-methylurea

> <CAS>
001007-36-9

> <VED1>
3.271

> <nHAcc>
3

> <MAXDP>
3.759

> <CIC0>
2.82

> <Log Koc Exp>
1.29

> <Log Koc Pred>
1.58

> <Hat>
0.023

> <Hat Cutoff>
0.161

> <ID Model>
382

> <Smiles>
c1c(cccc1)NC(=O)NC

$$$$
Pebulate
  SciTegic03251110552D

 13 12  0  0  0  0            999 V2000
    0.0000    0.0000    0.0000 C   0  0
    0.0000    0.0000    0.0000 C   0  0
    0.0000    0.0000    0.0000 C   0  0
    0.0000    0.0000    0.0000 N   0  0
    0.0000    0.0000    0.0000 C   0  0
    0.0000    0.0000    0.0000 C   0  0
    0.0000    0.0000    0.0000 C   0  0
    0.0000    0.0000    0.0000 O   0  0
    0.0000    0.0000    0.0000 S   0  0
    0.0000    0.0000    0.0000 C   0  0
    0.0000    0.0000    0.0000 C   0  0
    0.0000    0.0000    0.0000 C   0  0
    0.0000    0.0000    0.0000 C   0  0
  1  2  1  0
  1 13  1  0
  2  3  1  0
  3  4  1  0
  4  5  1  0
  4  7  1  0
  5  6  1  0
  7  8  2  0
  7  9  1  0
  9 10  1  0
 10 11  1  0
 11 12  1  0
M  END
> <Name>
Pebulate

> <CAS>
001114-71-2

> <VED1>
3.535

> <nHAcc>
2

> <MAXDP>
4.528

> <CIC0>
3.69

> <Log Koc Exp>
2.8

> <Log Koc Pred>
1.95

> <Hat>
0.066

> <Hat Cutoff>
0.161

> <ID Model>
384

> <Smiles>
C(CCN(CC)C(=O)SCCC)C

$$$$
1-Ethylnaphthalene
  SciTegic03251110552D

 12 13  0  0  0  0            999 V2000
    0.0000    0.0000    0.0000 C   0  0
    0.0000    0.0000    0.0000 C   0  0
    0.0000    0.0000    0.0000 C   0  0
    0.0000    0.0000    0.0000 C   0  0
    0.0000    0.0000    0.0000 C   0  0
    0.0000    0.0000    0.0000 C   0  0
    0.0000    0.0000    0.0000 C   0  0
    0.0000    0.0000    0.0000 C   0  0
    0.0000    0.0000    0.0000 C   0  0
    0.0000    0.0000    0.0000 C   0  0
    0.0000    0.0000    0.0000 C   0  0
    0.0000    0.0000    0.0000 C   0  0
  1  6  1  0
  1  2  2  3
  2  3  1  0
  3  4  2  3
  3 11  1  0
  4 10  1  0
  4  5  1  0
  5  6  2  3
  5  7  1  0
  7  8  2  3
  8  9  1  0
  9 10  2  3
 11 12  1  0
M  END
> <Name>
1-Ethylnaphthalene

> <CAS>
001127-76-0

> <VED1>
3.422

> <nHAcc>
0

> <MAXDP>
0.197

> <CIC0>
3.585

> <Log Koc Exp>
3.78

> <Log Koc Pred>
3.76

> <Hat>
0.076

> <Hat Cutoff>
0.161

> <ID Model>
385

> <Smiles>
c1cc(c2c(c1)cccc2)CC

$$$$
Butyranilide
  SciTegic03251110552D

 12 12  0  0  0  0            999 V2000
    0.0000    0.0000    0.0000 C   0  0
    0.0000    0.0000    0.0000 C   0  0
    0.0000    0.0000    0.0000 C   0  0
    0.0000    0.0000    0.0000 C   0  0
    0.0000    0.0000    0.0000 C   0  0
    0.0000    0.0000    0.0000 C   0  0
    0.0000    0.0000    0.0000 N   0  0
    0.0000    0.0000    0.0000 C   0  0
    0.0000    0.0000    0.0000 O   0  0
    0.0000    0.0000    0.0000 C   0  0
    0.0000    0.0000    0.0000 C   0  0
    0.0000    0.0000    0.0000 C   0  0
  1  6  1  0
  1  2  2  3
  2  3  1  0
  3  4  2  3
  4  5  1  0
  5  6  2  3
  5  7  1  0
  7  8  1  0
  8  9  2  0
  8 10  1  0
 10 11  1  0
 11 12  1  0
M  END
> <Name>
Butyranilide

> <CAS>
001129-50-6

> <VED1>
3.413

> <nHAcc>
2

> <MAXDP>
4.101

> <CIC0>
3.253

> <Log Koc Exp>
1.71

> <Log Koc Pred>
1.97

> <Hat>
0.038

> <Hat Cutoff>
0.161

> <ID Model>
386

> <Smiles>
c1cccc(c1)NC(=O)CCC

$$$$
Cycloate
  SciTegic03251110552D

 14 14  0  0  0  0            999 V2000
    0.0000    0.0000    0.0000 C   0  0
    0.0000    0.0000    0.0000 C   0  0
    0.0000    0.0000    0.0000 C   0  0
    0.0000    0.0000    0.0000 C   0  0
    0.0000    0.0000    0.0000 C   0  0
    0.0000    0.0000    0.0000 C   0  0
    0.0000    0.0000    0.0000 N   0  0
    0.0000    0.0000    0.0000 C   0  0
    0.0000    0.0000    0.0000 C   0  0
    0.0000    0.0000    0.0000 C   0  0
    0.0000    0.0000    0.0000 S   0  0
    0.0000    0.0000    0.0000 O   0  0
    0.0000    0.0000    0.0000 C   0  0
    0.0000    0.0000    0.0000 C   0  0
  1  6  1  0
  1  2  2  3
  2  3  1  0
  3  4  2  3
  4  5  1  0
  5  6  2  3
  6  7  1  0
  7  8  1  0
  7 10  1  0
  8  9  1  0
 10 11  1  0
 11 12  2  0
 11 13  1  0
 13 14  1  0
M  END
> <Name>
Cycloate

> <CAS>
001134-23-2

> <VED1>
3.683

> <nHAcc>
2

> <MAXDP>
4.424

> <CIC0>
3.469

> <Log Koc Exp>
2.54

> <Log Koc Pred>
2.37

> <Hat>
0.043

> <Hat Cutoff>
0.161

> <ID Model>
387

> <Smiles>
c1ccccc1N(CC)C[S@@](=O)CC

$$$$
Dichlobenil
  SciTegic03251110552D

 10 10  0  0  0  0            999 V2000
    0.0000    0.0000    0.0000 C   0  0
    0.0000    0.0000    0.0000 C   0  0
    0.0000    0.0000    0.0000 C   0  0
    0.0000    0.0000    0.0000 C   0  0
    0.0000    0.0000    0.0000 C   0  0
    0.0000    0.0000    0.0000 C   0  0
    0.0000    0.0000    0.0000 Cl  0  0
    0.0000    0.0000    0.0000 Cl  0  0
    0.0000    0.0000    0.0000 C   0  0
    0.0000    0.0000    0.0000 N   0  0
  1  6  1  0
  1  2  2  3
  1  9  1  0
  2  3  1  0
  2  8  1  0
  3  4  2  3
  4  5  1  0
  5  6  2  3
  6  7  1  0
  9 10  3  0
M  END
> <Name>
Dichlobenil

> <CAS>
001194-65-6

> <VED1>
3.12

> <nHAcc>
1

> <MAXDP>
2.48

> <CIC0>
2.031

> <Log Koc Exp>
2.38

> <Log Koc Pred>
2.59

> <Hat>
0.037

> <Hat Cutoff>
0.161

> <ID Model>
388

> <Smiles>
c1(c(cccc1Cl)Cl)C#N

$$$$
Tetrachlorocatechol
  SciTegic03251110552D

 12 12  0  0  0  0            999 V2000
    0.0000    0.0000    0.0000 C   0  0
    0.0000    0.0000    0.0000 C   0  0
    0.0000    0.0000    0.0000 C   0  0
    0.0000    0.0000    0.0000 C   0  0
    0.0000    0.0000    0.0000 C   0  0
    0.0000    0.0000    0.0000 C   0  0
    0.0000    0.0000    0.0000 Cl  0  0
    0.0000    0.0000    0.0000 Cl  0  0
    0.0000    0.0000    0.0000 O   0  0
    0.0000    0.0000    0.0000 O   0  0
    0.0000    0.0000    0.0000 Cl  0  0
    0.0000    0.0000    0.0000 Cl  0  0
  1  6  1  0
  1  2  2  3
  1 12  1  0
  2  3  1  0
  2 11  1  0
  3  4  2  3
  3 10  1  0
  4  5  1  0
  4  9  1  0
  5  6  2  3
  5  8  1  0
  6  7  1  0
M  END
> <Name>
Tetrachlorocatechol

> <CAS>
001198-55-6

> <VED1>
3.419

> <nHAcc>
2

> <MAXDP>
3.083

> <CIC0>
1.965

> <Log Koc Exp>
1.56

> <Log Koc Pred>
2.72

> <Hat>
0.048

> <Hat Cutoff>
0.161

> <ID Model>
389

> <Smiles>
c1(c(c(c(c(c1Cl)Cl)O)O)Cl)Cl

$$$$
5-Indanol
  SciTegic03251110552D

 10 11  0  0  0  0            999 V2000
    0.0000    0.0000    0.0000 C   0  0
    0.0000    0.0000    0.0000 C   0  0
    0.0000    0.0000    0.0000 C   0  0
    0.0000    0.0000    0.0000 C   0  0
    0.0000    0.0000    0.0000 C   0  0
    0.0000    0.0000    0.0000 C   0  0
    0.0000    0.0000    0.0000 C   0  0
    0.0000    0.0000    0.0000 C   0  0
    0.0000    0.0000    0.0000 C   0  0
    0.0000    0.0000    0.0000 O   0  0
  1  5  1  0
  1  2  1  0
  2  3  1  0
  3  9  1  0
  3  4  2  3
  4  5  1  0
  4  6  1  0
  6  7  2  3
  7  8  1  0
  8  9  2  3
  8 10  1  0
M  END
> <Name>
5-Indanol

> <CAS>
001470-94-6

> <VED1>
3.133

> <nHAcc>
1

> <MAXDP>
3.096

> <CIC0>
3.087

> <Log Koc Exp>
3.63

> <Log Koc Pred>
2.08

> <Hat>
0.034

> <Hat Cutoff>
0.161

> <ID Model>
391

> <Smiles>
C1Cc2c(C1)ccc(c2)O

$$$$
Butyl-N-phenylcarbamate
  SciTegic03251110552D

 14 14  0  0  0  0            999 V2000
    0.0000    0.0000    0.0000 C   0  0
    0.0000    0.0000    0.0000 C   0  0
    0.0000    0.0000    0.0000 C   0  0
    0.0000    0.0000    0.0000 C   0  0
    0.0000    0.0000    0.0000 O   0  0
    0.0000    0.0000    0.0000 C   0  0
    0.0000    0.0000    0.0000 O   0  0
    0.0000    0.0000    0.0000 N   0  0
    0.0000    0.0000    0.0000 C   0  0
    0.0000    0.0000    0.0000 C   0  0
    0.0000    0.0000    0.0000 C   0  0
    0.0000    0.0000    0.0000 C   0  0
    0.0000    0.0000    0.0000 C   0  0
    0.0000    0.0000    0.0000 C   0  0
  1  2  1  0
  2  3  1  0
  3  4  1  0
  4  5  1  0
  5  6  1  0
  6  7  2  0
  6  8  1  0
  8  9  1  0
  9 14  1  0
  9 10  2  3
 10 11  1  0
 11 12  2  3
 12 13  1  0
 13 14  2  3
M  END
> <Name>
Butyl-N-phenylcarbamate

> <CAS>
001538-74-5

> <VED1>
3.682

> <nHAcc>
3

> <MAXDP>
4.154

> <CIC0>
3.402

> <Log Koc Exp>
2.26

> <Log Koc Pred>
2.13

> <Hat>
0.027

> <Hat Cutoff>
0.161

> <ID Model>
392

> <Smiles>
CCCCOC(=O)Nc1ccccc1

$$$$
Carbofuran
  SciTegic03251110552D

 16 17  0  0  0  0            999 V2000
    0.0000    0.0000    0.0000 C   0  0
    0.0000    0.0000    0.0000 C   0  0
    0.0000    0.0000    0.0000 C   0  0
    0.0000    0.0000    0.0000 C   0  0
    0.0000    0.0000    0.0000 O   0  0
    0.0000    0.0000    0.0000 C   0  0
    0.0000    0.0000    0.0000 C   0  0
    0.0000    0.0000    0.0000 C   0  0
    0.0000    0.0000    0.0000 C   0  0
    0.0000    0.0000    0.0000 O   0  0
    0.0000    0.0000    0.0000 C   0  0
    0.0000    0.0000    0.0000 O   0  0
    0.0000    0.0000    0.0000 N   0  0
    0.0000    0.0000    0.0000 C   0  0
    0.0000    0.0000    0.0000 C   0  0
    0.0000    0.0000    0.0000 C   0  0
  1  5  1  0
  1  2  1  0
  1 15  1  0
  1 16  1  0
  2  3  1  0
  3  9  1  0
  3  4  2  3
  4  5  1  0
  4  6  1  0
  6  7  2  3
  6 10  1  0
  7  8  1  0
  8  9  2  3
 10 11  1  0
 11 12  2  0
 11 13  1  0
 13 14  1  0
M  END
> <Name>
Carbofuran

> <CAS>
001563-66-2

> <VED1>
3.938

> <nHAcc>
4

> <MAXDP>
4.154

> <CIC0>
3.432

> <Log Koc Exp>
1.61

> <Log Koc Pred>
2.32

> <Hat>
0.02

> <Hat Cutoff>
0.161

> <ID Model>
393

> <Smiles>
C1(Cc2c(O1)c(ccc2)OC(=O)NC)(C)C

$$$$
Atratone
  SciTegic03251110552D

 15 15  0  0  0  0            999 V2000
    0.0000    0.0000    0.0000 C   0  0
    0.0000    0.0000    0.0000 N   0  0
    0.0000    0.0000    0.0000 C   0  0
    0.0000    0.0000    0.0000 N   0  0
    0.0000    0.0000    0.0000 C   0  0
    0.0000    0.0000    0.0000 N   0  0
    0.0000    0.0000    0.0000 N   0  0
    0.0000    0.0000    0.0000 C   0  0
    0.0000    0.0000    0.0000 C   0  0
    0.0000    0.0000    0.0000 N   0  0
    0.0000    0.0000    0.0000 C   0  0
    0.0000    0.0000    0.0000 C   0  0
    0.0000    0.0000    0.0000 C   0  0
    0.0000    0.0000    0.0000 O   0  0
    0.0000    0.0000    0.0000 C   0  0
  1  6  1  0
  1  2  2  3
  1 14  1  0
  2  3  1  0
  3  4  2  3
  3 10  1  0
  4  5  1  0
  5  6  2  3
  5  7  1  0
  7  8  1  0
  8  9  1  0
 10 11  1  0
 11 12  1  0
 11 13  1  0
 14 15  1  0
M  END
> <Name>
Atratone

> <CAS>
001610-17-9

> <VED1>
3.802

> <nHAcc>
6

> <MAXDP>
1.481

> <CIC0>
3.426

> <Log Koc Exp>
2.64

> <Log Koc Pred>
2.19

> <Hat>
0.151

> <Hat Cutoff>
0.161

> <ID Model>
395

> <Smiles>
c1(nc(nc(n1)NCC)NC(C)C)OC

$$$$
Prometon
  SciTegic03251110552D

 16 16  0  0  0  0            999 V2000
    0.0000    0.0000    0.0000 N   0  0
    0.0000    0.0000    0.0000 C   0  0
    0.0000    0.0000    0.0000 N   0  0
    0.0000    0.0000    0.0000 C   0  0
    0.0000    0.0000    0.0000 N   0  0
    0.0000    0.0000    0.0000 C   0  0
    0.0000    0.0000    0.0000 O   0  0
    0.0000    0.0000    0.0000 C   0  0
    0.0000    0.0000    0.0000 N   0  0
    0.0000    0.0000    0.0000 C   0  0
    0.0000    0.0000    0.0000 C   0  0
    0.0000    0.0000    0.0000 C   0  0
    0.0000    0.0000    0.0000 N   0  0
    0.0000    0.0000    0.0000 C   0  0
    0.0000    0.0000    0.0000 C   0  0
    0.0000    0.0000    0.0000 C   0  0
  1  6  1  0
  1  2  2  3
  2  3  1  0
  2 13  1  0
  3  4  2  3
  4  5  1  0
  4  9  1  0
  5  6  2  3
  6  7  1  0
  7  8  1  0
  9 10  1  0
 10 11  1  0
 10 12  1  0
 13 14  1  0
 14 15  1  0
 14 16  1  0
M  END
> <Name>
Prometon

> <CAS>
001610-18-0

> <VED1>
3.93

> <nHAcc>
6

> <MAXDP>
1.516

> <CIC0>
3.587

> <Log Koc Exp>
2.57

> <Log Koc Pred>
2.39

> <Hat>
0.152

> <Hat Cutoff>
0.161

> <ID Model>
396

> <Smiles>
n1c(nc(nc1OC)NC(C)C)NC(C)C

$$$$
N,N'-Diethylhydrazine
  SciTegic03251110552D

  6  5  0  0  0  0            999 V2000
    0.0000    0.0000    0.0000 C   0  0
    0.0000    0.0000    0.0000 C   0  0
    0.0000    0.0000    0.0000 N   0  0
    0.0000    0.0000    0.0000 N   0  0
    0.0000    0.0000    0.0000 C   0  0
    0.0000    0.0000    0.0000 C   0  0
  1  2  1  0
  2  3  1  0
  3  4  1  0
  4  5  1  0
  5  6  1  0
M  END
> <Name>
N,N'-Diethylhydrazine

> <CAS>
001615-80-1

> <VED1>
2.412

> <nHAcc>
2

> <MAXDP>
0.448

> <CIC0>
2.946

> <Log Koc Exp>
1.18

> <Log Koc Pred>
1.1

> <Hat>
0.136

> <Hat Cutoff>
0.161

> <ID Model>
397

> <Smiles>
CCNNCC

$$$$
Aldicarb sulfoxide
  SciTegic03251110552D

 13 12  0  0  0  0            999 V2000
    0.0000    0.0000    0.0000 C   0  0
    0.0000    0.0000    0.0000 N   0  0
    0.0000    0.0000    0.0000 C   0  0
    0.0000    0.0000    0.0000 O   0  0
    0.0000    0.0000    0.0000 O   0  0
    0.0000    0.0000    0.0000 N   0  0
    0.0000    0.0000    0.0000 C   0  0
    0.0000    0.0000    0.0000 C   0  0
    0.0000    0.0000    0.0000 C   0  0
    0.0000    0.0000    0.0000 C   0  0
    0.0000    0.0000    0.0000 S   0  0
    0.0000    0.0000    0.0000 O   0  0
    0.0000    0.0000    0.0000 C   0  0
  1  2  1  0
  2  3  1  0
  3  4  2  0
  3  5  1  0
  5  6  1  0
  6  7  2  3
  7  8  1  0
  8  9  1  0
  8 10  1  0
  8 11  1  0
 11 12  2  0
 11 13  1  0
M  END
> <Name>
Aldicarb sulfoxide

> <CAS>
001646-87-3

> <VED1>
3.553

> <nHAcc>
5

> <MAXDP>
4.074

> <CIC0>
2.952

> <Log Koc Exp>
0.56

> <Log Koc Pred>
1.36

> <Hat>
0.033

> <Hat Cutoff>
0.161

> <ID Model>
398

> <Smiles>
CNC(=O)ON=CC(C)(C)[S@](=O)C

$$$$
Aldicarb sulfone (=aldoxycarb)
  SciTegic03251110552D

 14 13  0  0  0  0            999 V2000
    0.0000    0.0000    0.0000 C   0  0
    0.0000    0.0000    0.0000 S   0  0
    0.0000    0.0000    0.0000 O   0  0
    0.0000    0.0000    0.0000 O   0  0
    0.0000    0.0000    0.0000 C   0  0
    0.0000    0.0000    0.0000 C   0  0
    0.0000    0.0000    0.0000 C   0  0
    0.0000    0.0000    0.0000 C   0  0
    0.0000    0.0000    0.0000 N   0  0
    0.0000    0.0000    0.0000 O   0  0
    0.0000    0.0000    0.0000 C   0  0
    0.0000    0.0000    0.0000 O   0  0
    0.0000    0.0000    0.0000 N   0  0
    0.0000    0.0000    0.0000 C   0  0
  1  2  1  0
  2  3  2  0
  2  4  2  0
  2  5  1  0
  5  6  1  0
  5  7  1  0
  5  8  1  0
  8  9  2  3
  9 10  1  0
 10 11  1  0
 11 12  2  0
 11 13  1  0
 13 14  1  0
M  END
> <Name>
Aldicarb sulfone (=aldoxycarb)

> <CAS>
001646-88-4

> <VED1>
3.688

> <nHAcc>
6

> <MAXDP>
4.151

> <CIC0>
2.963

> <Log Koc Exp>
0.71

> <Log Koc Pred>
1.28

> <Hat>
0.047

> <Hat Cutoff>
0.161

> <ID Model>
399

> <Smiles>
CS(=O)(=O)C(C)(C)C=NOC(=O)NC

$$$$
Bromoxynil
  SciTegic03251110552D

 11 11  0  0  0  0            999 V2000
    0.0000    0.0000    0.0000 C   0  0
    0.0000    0.0000    0.0000 C   0  0
    0.0000    0.0000    0.0000 C   0  0
    0.0000    0.0000    0.0000 C   0  0
    0.0000    0.0000    0.0000 C   0  0
    0.0000    0.0000    0.0000 C   0  0
    0.0000    0.0000    0.0000 Br  0  0
    0.0000    0.0000    0.0000 O   0  0
    0.0000    0.0000    0.0000 Br  0  0
    0.0000    0.0000    0.0000 C   0  0
    0.0000    0.0000    0.0000 N   0  0
  1  6  1  0
  1  2  2  3
  1 10  1  0
  2  3  1  0
  3  4  2  3
  3  9  1  0
  4  5  1  0
  4  8  1  0
  5  6  2  3
  5  7  1  0
 10 11  3  0
M  END
> <Name>
Bromoxynil

> <CAS>
001689-84-5

> <VED1>
3.267

> <nHAcc>
2

> <MAXDP>
3.223

> <CIC0>
1.886

> <Log Koc Exp>
2.28

> <Log Koc Pred>
2.38

> <Hat>
0.047

> <Hat Cutoff>
0.161

> <ID Model>
400

> <Smiles>
c1(cc(c(c(c1)Br)O)Br)C#N

$$$$
Bromoxynil octanoate
  SciTegic03251110552D

 20 20  0  0  0  0            999 V2000
    0.0000    0.0000    0.0000 C   0  0
    0.0000    0.0000    0.0000 C   0  0
    0.0000    0.0000    0.0000 C   0  0
    0.0000    0.0000    0.0000 C   0  0
    0.0000    0.0000    0.0000 C   0  0
    0.0000    0.0000    0.0000 C   0  0
    0.0000    0.0000    0.0000 C   0  0
    0.0000    0.0000    0.0000 C   0  0
    0.0000    0.0000    0.0000 O   0  0
    0.0000    0.0000    0.0000 O   0  0
    0.0000    0.0000    0.0000 C   0  0
    0.0000    0.0000    0.0000 C   0  0
    0.0000    0.0000    0.0000 C   0  0
    0.0000    0.0000    0.0000 C   0  0
    0.0000    0.0000    0.0000 C   0  0
    0.0000    0.0000    0.0000 C   0  0
    0.0000    0.0000    0.0000 Br  0  0
    0.0000    0.0000    0.0000 C   0  0
    0.0000    0.0000    0.0000 N   0  0
    0.0000    0.0000    0.0000 Br  0  0
  1  2  1  0
  2  3  1  0
  3  4  1  0
  4  5  1  0
  5  6  1  0
  6  7  1  0
  7  8  1  0
  8  9  2  0
  8 10  1  0
 10 11  1  0
 11 16  1  0
 11 12  2  3
 12 13  1  0
 12 20  1  0
 13 14  2  3
 14 15  1  0
 14 18  1  0
 15 16  2  3
 16 17  1  0
 18 19  3  0
M  END
> <Name>
Bromoxynil octanoate

> <CAS>
001689-99-2

> <VED1>
4.389

> <nHAcc>
3

> <MAXDP>
4.775

> <CIC0>
3.57

> <Log Koc Exp>
4

> <Log Koc Pred>
3.37

> <Hat>
0.038

> <Hat Cutoff>
0.161

> <ID Model>
401

> <Smiles>
CCCCCCCC(=O)Oc1c(cc(cc1Br)C#N)Br

$$$$
Pyrazon
  SciTegic03251110552D

 17 18  0  0  0  0            999 V2000
    0.0000    0.0000    0.0000 N   0  0
    0.0000    0.0000    0.0000 C   0  0
    0.0000    0.0000    0.0000 H   0  0
    0.0000    0.0000    0.0000 C   0  0
    0.0000    0.0000    0.0000 H   0  0
    0.0000    0.0000    0.0000 C   0  0
    0.0000    0.0000    0.0000 O   0  0
    0.0000    0.0000    0.0000 N   0  0
    0.0000    0.0000    0.0000 N   0  0
    0.0000    0.0000    0.0000 C   0  0
    0.0000    0.0000    0.0000 C   0  0
    0.0000    0.0000    0.0000 C   0  0
    0.0000    0.0000    0.0000 C   0  0
    0.0000    0.0000    0.0000 C   0  0
    0.0000    0.0000    0.0000 C   0  0
    0.0000    0.0000    0.0000 C   0  0
    0.0000    0.0000    0.0000 Cl  0  0
  1  2  1  0
  2  3  1  0
  2 10  1  0
  2  4  1  0
  4  5  1  0
  4  6  1  0
  4 17  1  0
  6  7  2  0
  6  8  1  0
  8  9  1  0
  8 11  1  0
  9 10  1  0
 11 16  1  0
 11 12  2  3
 12 13  1  0
 13 14  2  3
 14 15  1  0
 15 16  2  3
M  END
> <Name>
Pyrazon

> <CAS>
001698-60-8

> <VED1>
3.821

> <nHAcc>
4

> <MAXDP>
4.679

> <CIC0>
2.695

> <Log Koc Exp>
2.07

> <Log Koc Pred>
2.16

> <Hat>
0.027

> <Hat Cutoff>
0.161

> <ID Model>
402

> <Smiles>
N[C@H]1[C@@H](C(=O)N(NC1)c1ccccc1)Cl

$$$$
Monolinuron
  SciTegic03251110552D

 14 14  0  0  0  0            999 V2000
    0.0000    0.0000    0.0000 C   0  0
    0.0000    0.0000    0.0000 C   0  0
    0.0000    0.0000    0.0000 C   0  0
    0.0000    0.0000    0.0000 C   0  0
    0.0000    0.0000    0.0000 C   0  0
    0.0000    0.0000    0.0000 C   0  0
    0.0000    0.0000    0.0000 N   0  0
    0.0000    0.0000    0.0000 C   0  0
    0.0000    0.0000    0.0000 O   0  0
    0.0000    0.0000    0.0000 N   0  0
    0.0000    0.0000    0.0000 O   0  0
    0.0000    0.0000    0.0000 C   0  0
    0.0000    0.0000    0.0000 C   0  0
    0.0000    0.0000    0.0000 Cl  0  0
  1  6  1  0
  1  2  2  3
  2  3  1  0
  2 14  1  0
  3  4  2  3
  4  5  1  0
  5  6  2  3
  5  7  1  0
  7  8  1  0
  8  9  2  0
  8 10  1  0
 10 11  1  0
 10 13  1  0
 11 12  1  0
M  END
> <Name>
Monolinuron

> <CAS>
001746-81-2

> <VED1>
3.685

> <nHAcc>
4

> <MAXDP>
4.285

> <CIC0>
2.823

> <Log Koc Exp>
2.2

> <Log Koc Pred>
1.95

> <Hat>
0.019

> <Hat Cutoff>
0.161

> <ID Model>
403

> <Smiles>
c1c(ccc(c1)NC(=O)N(OC)C)Cl

$$$$
Diamidafos
  SciTegic03251110552D

 13 13  0  0  0  0            999 V2000
    0.0000    0.0000    0.0000 C   0  0
    0.0000    0.0000    0.0000 C   0  0
    0.0000    0.0000    0.0000 C   0  0
    0.0000    0.0000    0.0000 C   0  0
    0.0000    0.0000    0.0000 C   0  0
    0.0000    0.0000    0.0000 C   0  0
    0.0000    0.0000    0.0000 O   0  0
    0.0000    0.0000    0.0000 P   0  0
    0.0000    0.0000    0.0000 O   0  0
    0.0000    0.0000    0.0000 N   0  0
    0.0000    0.0000    0.0000 C   0  0
    0.0000    0.0000    0.0000 N   0  0
    0.0000    0.0000    0.0000 C   0  0
  1  6  1  0
  1  2  2  3
  2  3  1  0
  2  7  1  0
  3  4  2  3
  4  5  1  0
  5  6  2  3
  7  8  1  0
  8  9  2  0
  8 10  1  0
  8 12  1  0
 10 11  1  0
 12 13  1  0
M  END
> <Name>
Diamidafos

> <CAS>
001754-58-1

> <VED1>
3.555

> <nHAcc>
4

> <MAXDP>
4.676

> <CIC0>
2.927

> <Log Koc Exp>
1.51

> <Log Koc Pred>
1.52

> <Hat>
0.029

> <Hat Cutoff>
0.161

> <ID Model>
404

> <Smiles>
c1c(cccc1)OP(=O)(NC)NC

$$$$
Nitrofen
  SciTegic03251110552D

 18 19  0  0  0  0            999 V2000
    0.0000    0.0000    0.0000 O   0  0
    0.0000    0.0000    0.0000 N   0  0
    0.0000    0.0000    0.0000 O   0  0
    0.0000    0.0000    0.0000 C   0  0
    0.0000    0.0000    0.0000 C   0  0
    0.0000    0.0000    0.0000 C   0  0
    0.0000    0.0000    0.0000 C   0  0
    0.0000    0.0000    0.0000 C   0  0
    0.0000    0.0000    0.0000 C   0  0
    0.0000    0.0000    0.0000 O   0  0
    0.0000    0.0000    0.0000 C   0  0
    0.0000    0.0000    0.0000 C   0  0
    0.0000    0.0000    0.0000 C   0  0
    0.0000    0.0000    0.0000 C   0  0
    0.0000    0.0000    0.0000 C   0  0
    0.0000    0.0000    0.0000 C   0  0
    0.0000    0.0000    0.0000 Cl  0  0
    0.0000    0.0000    0.0000 Cl  0  0
  1  2  1  0
  2  3  1  0
  2  4  1  0
  4  9  1  0
  4  5  2  3
  5  6  1  0
  6  7  2  3
  7  8  1  0
  7 10  1  0
  8  9  2  3
 10 11  1  0
 11 16  1  0
 11 12  2  3
 12 13  1  0
 12 18  1  0
 13 14  2  3
 14 15  1  0
 14 17  1  0
 15 16  2  3
M  END
> <Name>
Nitrofen

> <CAS>
001836-75-5

> <VED1>
4.178

> <nHAcc>
3

> <MAXDP>
3.491

> <CIC0>
2.777

> <Log Koc Exp>
3.65

> <Log Koc Pred>
3.58

> <Hat>
0.036

> <Hat Cutoff>
0.161

> <ID Model>
405

> <Smiles>
ON(O)c1ccc(cc1)Oc1c(cc(cc1)Cl)Cl

$$$$
Dimethyl 2,3,5,6-Tetrachloroterephthalate
  SciTegic03251110552D

 18 18  0  0  0  0            999 V2000
    0.0000    0.0000    0.0000 O   0  0
    0.0000    0.0000    0.0000 C   0  0
    0.0000    0.0000    0.0000 C   0  0
    0.0000    0.0000    0.0000 C   0  0
    0.0000    0.0000    0.0000 Cl  0  0
    0.0000    0.0000    0.0000 C   0  0
    0.0000    0.0000    0.0000 Cl  0  0
    0.0000    0.0000    0.0000 C   0  0
    0.0000    0.0000    0.0000 C   0  0
    0.0000    0.0000    0.0000 C   0  0
    0.0000    0.0000    0.0000 Cl  0  0
    0.0000    0.0000    0.0000 Cl  0  0
    0.0000    0.0000    0.0000 C   0  0
    0.0000    0.0000    0.0000 O   0  0
    0.0000    0.0000    0.0000 O   0  0
    0.0000    0.0000    0.0000 C   0  0
    0.0000    0.0000    0.0000 O   0  0
    0.0000    0.0000    0.0000 C   0  0
  1  2  2  0
  2  3  1  0
  2 17  1  0
  3 10  1  0
  3  4  2  3
  4  5  1  0
  4  6  1  0
  6  7  1  0
  6  8  2  3
  8  9  1  0
  8 13  1  0
  9 10  2  3
  9 12  1  0
 10 11  1  0
 13 14  2  0
 13 15  1  0
 15 16  1  0
 17 18  1  0
M  END
> <Name>
Dimethyl 2,3,5,6-Tetrachloroterephthalate

> <CAS>
001861-32-1

> <VED1>
4.168

> <nHAcc>
4

> <MAXDP>
4.486

> <CIC0>
2.697

> <Log Koc Exp>
3.67

> <Log Koc Pred>
2.94

> <Hat>
0.038

> <Hat Cutoff>
0.161

> <ID Model>
407

> <Smiles>
O=C(c1c(Cl)c(Cl)c(c(c1Cl)Cl)C(=O)OC)OC

$$$$
Benfluralin
  SciTegic03251110552D

 23 23  0  0  0  0            999 V2000
    0.0000    0.0000    0.0000 O   0  0
    0.0000    0.0000    0.0000 N   0  0
    0.0000    0.0000    0.0000 O   0  0
    0.0000    0.0000    0.0000 C   0  0
    0.0000    0.0000    0.0000 C   0  0
    0.0000    0.0000    0.0000 N   0  0
    0.0000    0.0000    0.0000 C   0  0
    0.0000    0.0000    0.0000 C   0  0
    0.0000    0.0000    0.0000 C   0  0
    0.0000    0.0000    0.0000 C   0  0
    0.0000    0.0000    0.0000 C   0  0
    0.0000    0.0000    0.0000 C   0  0
    0.0000    0.0000    0.0000 C   0  0
    0.0000    0.0000    0.0000 C   0  0
    0.0000    0.0000    0.0000 C   0  0
    0.0000    0.0000    0.0000 C   0  0
    0.0000    0.0000    0.0000 C   0  0
    0.0000    0.0000    0.0000 F   0  0
    0.0000    0.0000    0.0000 F   0  0
    0.0000    0.0000    0.0000 F   0  0
    0.0000    0.0000    0.0000 N   0  0
    0.0000    0.0000    0.0000 O   0  0
    0.0000    0.0000    0.0000 O   0  0
  1  2  1  0
  2  3  1  0
  2  4  1  0
  4 16  1  0
  4  5  2  3
  5  6  1  0
  5 13  1  0
  6  7  1  0
  6 11  1  0
  7  8  1  0
  8  9  1  0
  9 10  1  0
 11 12  1  0
 13 14  2  3
 13 21  1  0
 14 15  1  0
 15 16  2  3
 15 17  1  0
 17 18  1  0
 17 19  1  0
 17 20  1  0
 21 22  1  0
 21 23  1  0
M  END
> <Name>
Benfluralin

> <CAS>
001861-40-1

> <VED1>
4.708

> <nHAcc>
8

> <MAXDP>
4.833

> <CIC0>
3.323

> <Log Koc Exp>
4.03

> <Log Koc Pred>
2.41

> <Hat>
0.073

> <Hat Cutoff>
0.161

> <ID Model>
408

> <Smiles>
ON(O)c1c(N(CCCC)CC)c(cc(c1)C(F)(F)F)N(O)O

$$$$
Chlorothalonil
  SciTegic03251110552D

 14 14  0  0  0  0            999 V2000
    0.0000    0.0000    0.0000 C   0  0
    0.0000    0.0000    0.0000 N   0  0
    0.0000    0.0000    0.0000 C   0  0
    0.0000    0.0000    0.0000 C   0  0
    0.0000    0.0000    0.0000 C   0  0
    0.0000    0.0000    0.0000 C   0  0
    0.0000    0.0000    0.0000 C   0  0
    0.0000    0.0000    0.0000 C   0  0
    0.0000    0.0000    0.0000 Cl  0  0
    0.0000    0.0000    0.0000 C   0  0
    0.0000    0.0000    0.0000 N   0  0
    0.0000    0.0000    0.0000 Cl  0  0
    0.0000    0.0000    0.0000 Cl  0  0
    0.0000    0.0000    0.0000 Cl  0  0
  1  2  3  0
  1  3  1  0
  3  8  1  0
  3  4  2  3
  4  5  1  0
  4 14  1  0
  5  6  2  3
  5 13  1  0
  6  7  1  0
  6 12  1  0
  7  8  2  3
  7 10  1  0
  8  9  1  0
 10 11  3  0
M  END
> <Name>
Chlorothalonil

> <CAS>
001897-45-6

> <VED1>
3.682

> <nHAcc>
2

> <MAXDP>
2.705

> <CIC0>
2.429

> <Log Koc Exp>
3.2

> <Log Koc Pred>
3.24

> <Hat>
0.031

> <Hat Cutoff>
0.161

> <ID Model>
409

> <Smiles>
C(#N)c1c(c(c(c(c1Cl)C#N)Cl)Cl)Cl

$$$$
Atrazine
  SciTegic03251110552D

 14 14  0  0  0  0            999 V2000
    0.0000    0.0000    0.0000 N   0  0
    0.0000    0.0000    0.0000 C   0  0
    0.0000    0.0000    0.0000 N   0  0
    0.0000    0.0000    0.0000 C   0  0
    0.0000    0.0000    0.0000 N   0  0
    0.0000    0.0000    0.0000 C   0  0
    0.0000    0.0000    0.0000 Cl  0  0
    0.0000    0.0000    0.0000 N   0  0
    0.0000    0.0000    0.0000 C   0  0
    0.0000    0.0000    0.0000 C   0  0
    0.0000    0.0000    0.0000 N   0  0
    0.0000    0.0000    0.0000 C   0  0
    0.0000    0.0000    0.0000 C   0  0
    0.0000    0.0000    0.0000 C   0  0
  1  6  1  0
  1  2  2  3
  2  3  1  0
  2 11  1  0
  3  4  2  3
  4  5  1  0
  4  8  1  0
  5  6  2  3
  6  7  1  0
  8  9  1  0
  9 10  1  0
 11 12  1  0
 12 13  1  0
 12 14  1  0
M  END
> <Name>
Atrazine

> <CAS>
001912-24-9

> <VED1>
3.677

> <nHAcc>
5

> <MAXDP>
1.616

> <CIC0>
3.175

> <Log Koc Exp>
2.21

> <Log Koc Pred>
2.3

> <Hat>
0.093

> <Hat Cutoff>
0.161

> <ID Model>
410

> <Smiles>
n1c(nc(nc1Cl)NCC)NC(C)C

$$$$
Ipazine
  SciTegic03251110552D

 16 16  0  0  0  0            999 V2000
    0.0000    0.0000    0.0000 N   0  0
    0.0000    0.0000    0.0000 C   0  0
    0.0000    0.0000    0.0000 N   0  0
    0.0000    0.0000    0.0000 C   0  0
    0.0000    0.0000    0.0000 N   0  0
    0.0000    0.0000    0.0000 C   0  0
    0.0000    0.0000    0.0000 Cl  0  0
    0.0000    0.0000    0.0000 N   0  0
    0.0000    0.0000    0.0000 C   0  0
    0.0000    0.0000    0.0000 C   0  0
    0.0000    0.0000    0.0000 N   0  0
    0.0000    0.0000    0.0000 C   0  0
    0.0000    0.0000    0.0000 C   0  0
    0.0000    0.0000    0.0000 C   0  0
    0.0000    0.0000    0.0000 C   0  0
    0.0000    0.0000    0.0000 C   0  0
  1  6  1  0
  1  2  2  3
  2  3  1  0
  2 11  1  0
  3  4  2  3
  4  5  1  0
  4  8  1  0
  5  6  2  3
  6  7  1  0
  8  9  1  0
  9 10  1  0
 11 12  1  0
 11 15  1  0
 12 13  1  0
 12 14  1  0
 15 16  1  0
M  END
> <Name>
Ipazine

> <CAS>
001912-25-0

> <VED1>
3.933

> <nHAcc>
5

> <MAXDP>
1.751

> <CIC0>
3.526

> <Log Koc Exp>
3.07

> <Log Koc Pred>
2.68

> <Hat>
0.094

> <Hat Cutoff>
0.161

> <ID Model>
411

> <Smiles>
n1c(nc(nc1Cl)NCC)N(C(C)C)CC

$$$$
Trietazine
  SciTegic03251110552D

 15 15  0  0  0  0            999 V2000
    0.0000    0.0000    0.0000 N   0  0
    0.0000    0.0000    0.0000 C   0  0
    0.0000    0.0000    0.0000 N   0  0
    0.0000    0.0000    0.0000 C   0  0
    0.0000    0.0000    0.0000 N   0  0
    0.0000    0.0000    0.0000 C   0  0
    0.0000    0.0000    0.0000 Cl  0  0
    0.0000    0.0000    0.0000 N   0  0
    0.0000    0.0000    0.0000 C   0  0
    0.0000    0.0000    0.0000 C   0  0
    0.0000    0.0000    0.0000 N   0  0
    0.0000    0.0000    0.0000 C   0  0
    0.0000    0.0000    0.0000 C   0  0
    0.0000    0.0000    0.0000 C   0  0
    0.0000    0.0000    0.0000 C   0  0
  1  6  1  0
  1  2  2  3
  2  3  1  0
  2 11  1  0
  3  4  2  3
  4  5  1  0
  4  8  1  0
  5  6  2  3
  6  7  1  0
  8  9  1  0
  9 10  1  0
 11 12  1  0
 11 14  1  0
 12 13  1  0
 14 15  1  0
M  END
> <Name>
Trietazine

> <CAS>
001912-26-1

> <VED1>
3.805

> <nHAcc>
5

> <MAXDP>
1.704

> <CIC0>
3.359

> <Log Koc Exp>
2.77

> <Log Koc Pred>
2.48

> <Hat>
0.092

> <Hat Cutoff>
0.161

> <ID Model>
412

> <Smiles>
n1c(nc(nc1Cl)NCC)N(CC)CC

$$$$
Dicamba
  SciTegic03251110552D

 13 13  0  0  0  0            999 V2000
    0.0000    0.0000    0.0000 C   0  0
    0.0000    0.0000    0.0000 C   0  0
    0.0000    0.0000    0.0000 C   0  0
    0.0000    0.0000    0.0000 C   0  0
    0.0000    0.0000    0.0000 C   0  0
    0.0000    0.0000    0.0000 C   0  0
    0.0000    0.0000    0.0000 O   0  0
    0.0000    0.0000    0.0000 C   0  0
    0.0000    0.0000    0.0000 Cl  0  0
    0.0000    0.0000    0.0000 Cl  0  0
    0.0000    0.0000    0.0000 C   0  0
    0.0000    0.0000    0.0000 O   0  0
    0.0000    0.0000    0.0000 O   0  0
  1  6  1  0
  1  2  2  3
  1 11  1  0
  2  3  1  0
  2 10  1  0
  3  4  2  3
  4  5  1  0
  5  6  2  3
  5  9  1  0
  6  7  1  0
  7  8  1  0
 11 12  2  0
 11 13  1  0
M  END
> <Name>
Dicamba

> <CAS>
001918-00-9

> <VED1>
3.552

> <nHAcc>
3

> <MAXDP>
3.731

> <CIC0>
2.435

> <Log Koc Exp>
1.5

> <Log Koc Pred>
2.31

> <Hat>
0.023

> <Hat Cutoff>
0.161

> <ID Model>
413

> <Smiles>
c1(c(ccc(c1OC)Cl)Cl)C(=O)O

$$$$
Picloram
  SciTegic03251110552D

 13 13  0  0  0  0            999 V2000
    0.0000    0.0000    0.0000 C   0  0
    0.0000    0.0000    0.0000 C   0  0
    0.0000    0.0000    0.0000 C   0  0
    0.0000    0.0000    0.0000 C   0  0
    0.0000    0.0000    0.0000 N   0  0
    0.0000    0.0000    0.0000 C   0  0
    0.0000    0.0000    0.0000 C   0  0
    0.0000    0.0000    0.0000 O   0  0
    0.0000    0.0000    0.0000 O   0  0
    0.0000    0.0000    0.0000 Cl  0  0
    0.0000    0.0000    0.0000 Cl  0  0
    0.0000    0.0000    0.0000 N   0  0
    0.0000    0.0000    0.0000 Cl  0  0
  1  6  1  0
  1  2  2  3
  1 13  1  0
  2  3  1  0
  2 12  1  0
  3  4  2  3
  3 11  1  0
  4  5  1  0
  4 10  1  0
  5  6  2  3
  6  7  1  0
  7  8  2  0
  7  9  1  0
M  END
> <Name>
Picloram

> <CAS>
001918-02-1

> <VED1>
3.554

> <nHAcc>
4

> <MAXDP>
3.533

> <CIC0>
1.814

> <Log Koc Exp>
1.27

> <Log Koc Pred>
2.24

> <Hat>
0.059

> <Hat Cutoff>
0.161

> <ID Model>
414

> <Smiles>
c1(c(c(c(nc1C(=O)O)Cl)Cl)N)Cl

$$$$
Chlorthiamid
  SciTegic03251110552D

 11 11  0  0  0  0            999 V2000
    0.0000    0.0000    0.0000 C   0  0
    0.0000    0.0000    0.0000 C   0  0
    0.0000    0.0000    0.0000 C   0  0
    0.0000    0.0000    0.0000 C   0  0
    0.0000    0.0000    0.0000 C   0  0
    0.0000    0.0000    0.0000 C   0  0
    0.0000    0.0000    0.0000 Cl  0  0
    0.0000    0.0000    0.0000 C   0  0
    0.0000    0.0000    0.0000 S   0  0
    0.0000    0.0000    0.0000 N   0  0
    0.0000    0.0000    0.0000 Cl  0  0
  1  6  1  0
  1  2  2  3
  2  3  1  0
  3  4  2  3
  3 11  1  0
  4  5  1  0
  4  8  1  0
  5  6  2  3
  5  7  1  0
  8  9  2  0
  8 10  1  0
M  END
> <Name>
Chlorthiamid

> <CAS>
001918-13-4

> <VED1>
3.273

> <nHAcc>
1

> <MAXDP>
1.661

> <CIC0>
2.079

> <Log Koc Exp>
2.26

> <Log Koc Pred>
3.15

> <Hat>
0.042

> <Hat Cutoff>
0.161

> <ID Model>
415

> <Smiles>
c1cc(c(c(c1)Cl)C(=S)N)Cl

$$$$
Propachlor
  SciTegic03251110552D

 14 14  0  0  0  0            999 V2000
    0.0000    0.0000    0.0000 C   0  0
    0.0000    0.0000    0.0000 C   0  0
    0.0000    0.0000    0.0000 C   0  0
    0.0000    0.0000    0.0000 C   0  0
    0.0000    0.0000    0.0000 C   0  0
    0.0000    0.0000    0.0000 C   0  0
    0.0000    0.0000    0.0000 N   0  0
    0.0000    0.0000    0.0000 C   0  0
    0.0000    0.0000    0.0000 C   0  0
    0.0000    0.0000    0.0000 C   0  0
    0.0000    0.0000    0.0000 C   0  0
    0.0000    0.0000    0.0000 O   0  0
    0.0000    0.0000    0.0000 C   0  0
    0.0000    0.0000    0.0000 Cl  0  0
  1  6  1  0
  1  2  2  3
  2  3  1  0
  3  4  2  3
  4  5  1  0
  5  6  2  3
  5  7  1  0
  7  8  1  0
  7 11  1  0
  8  9  1  0
  8 10  1  0
 11 12  2  0
 11 13  1  0
 13 14  1  0
M  END
> <Name>
Propachlor

> <CAS>
001918-16-7

> <VED1>
3.685

> <nHAcc>
2

> <MAXDP>
4.548

> <CIC0>
3.263

> <Log Koc Exp>
2.42

> <Log Koc Pred>
2.4

> <Hat>
0.042

> <Hat Cutoff>
0.161

> <ID Model>
416

> <Smiles>
c1cccc(c1)N(C(C)C)C(=O)CCl

$$$$
Methyl 3,4-dichlorophenylcarbamate
  SciTegic03251110552D

 13 13  0  0  0  0            999 V2000
    0.0000    0.0000    0.0000 C   0  0
    0.0000    0.0000    0.0000 C   0  0
    0.0000    0.0000    0.0000 C   0  0
    0.0000    0.0000    0.0000 C   0  0
    0.0000    0.0000    0.0000 C   0  0
    0.0000    0.0000    0.0000 C   0  0
    0.0000    0.0000    0.0000 N   0  0
    0.0000    0.0000    0.0000 C   0  0
    0.0000    0.0000    0.0000 O   0  0
    0.0000    0.0000    0.0000 O   0  0
    0.0000    0.0000    0.0000 C   0  0
    0.0000    0.0000    0.0000 Cl  0  0
    0.0000    0.0000    0.0000 Cl  0  0
  1  6  1  0
  1  2  2  3
  1 13  1  0
  2  3  1  0
  2 12  1  0
  3  4  2  3
  4  5  1  0
  4  7  1  0
  5  6  2  3
  7  8  1  0
  8  9  2  0
  8 10  1  0
 10 11  1  0
M  END
> <Name>
Methyl 3,4-dichlorophenylcarbamate

> <CAS>
001918-18-9

> <VED1>
3.55

> <nHAcc>
3

> <MAXDP>
3.768

> <CIC0>
2.383

> <Log Koc Exp>
2.74

> <Log Koc Pred>
2.31

> <Hat>
0.025

> <Hat Cutoff>
0.161

> <ID Model>
417

> <Smiles>
c1(c(cc(cc1)NC(=O)OC)Cl)Cl

$$$$
Vernolate
  SciTegic03251110552D

 13 12  0  0  0  0            999 V2000
    0.0000    0.0000    0.0000 C   0  0
    0.0000    0.0000    0.0000 C   0  0
    0.0000    0.0000    0.0000 C   0  0
    0.0000    0.0000    0.0000 S   0  0
    0.0000    0.0000    0.0000 C   0  0
    0.0000    0.0000    0.0000 O   0  0
    0.0000    0.0000    0.0000 N   0  0
    0.0000    0.0000    0.0000 C   0  0
    0.0000    0.0000    0.0000 C   0  0
    0.0000    0.0000    0.0000 C   0  0
    0.0000    0.0000    0.0000 C   0  0
    0.0000    0.0000    0.0000 C   0  0
    0.0000    0.0000    0.0000 C   0  0
  1  2  1  0
  2  3  1  0
  3  4  1  0
  4  5  1  0
  5  6  2  0
  5  7  1  0
  7  8  1  0
  7 11  1  0
  8  9  1  0
  9 10  1  0
 11 12  1  0
 12 13  1  0
M  END
> <Name>
Vernolate

> <CAS>
001929-77-7

> <VED1>
3.534

> <nHAcc>
2

> <MAXDP>
4.571

> <CIC0>
3.69

> <Log Koc Exp>
2.38

> <Log Koc Pred>
1.94

> <Hat>
0.067

> <Hat Cutoff>
0.161

> <ID Model>
418

> <Smiles>
CCCSC(=O)N(CCC)CCC

$$$$
Nitrapyrin
  SciTegic03251110552D

 11 11  0  0  0  0            999 V2000
    0.0000    0.0000    0.0000 C   0  0
    0.0000    0.0000    0.0000 C   0  0
    0.0000    0.0000    0.0000 C   0  0
    0.0000    0.0000    0.0000 C   0  0
    0.0000    0.0000    0.0000 C   0  0
    0.0000    0.0000    0.0000 N   0  0
    0.0000    0.0000    0.0000 Cl  0  0
    0.0000    0.0000    0.0000 C   0  0
    0.0000    0.0000    0.0000 Cl  0  0
    0.0000    0.0000    0.0000 Cl  0  0
    0.0000    0.0000    0.0000 Cl  0  0
  1  6  1  0
  1  2  2  3
  1  8  1  0
  2  3  1  0
  3  4  2  3
  4  5  1  0
  5  6  2  3
  5  7  1  0
  8  9  1  0
  8 10  1  0
  8 11  1  0
M  END
> <Name>
Nitrapyrin

> <CAS>
001929-82-4

> <VED1>
3.277

> <nHAcc>
1

> <MAXDP>
1.453

> <CIC0>
2.019

> <Log Koc Exp>
2.62

> <Log Koc Pred>
3.24

> <Hat>
0.049

> <Hat Cutoff>
0.161

> <ID Model>
419

> <Smiles>
c1(cccc(n1)Cl)C(Cl)(Cl)Cl

$$$$
Methyl-N-phenylcarbamate
  SciTegic03251110552D

 11 11  0  0  0  0            999 V2000
    0.0000    0.0000    0.0000 C   0  0
    0.0000    0.0000    0.0000 C   0  0
    0.0000    0.0000    0.0000 C   0  0
    0.0000    0.0000    0.0000 C   0  0
    0.0000    0.0000    0.0000 C   0  0
    0.0000    0.0000    0.0000 C   0  0
    0.0000    0.0000    0.0000 O   0  0
    0.0000    0.0000    0.0000 C   0  0
    0.0000    0.0000    0.0000 O   0  0
    0.0000    0.0000    0.0000 N   0  0
    0.0000    0.0000    0.0000 C   0  0
  1  6  1  0
  1  2  2  3
  2  3  1  0
  2  7  1  0
  3  4  2  3
  4  5  1  0
  5  6  2  3
  7  8  1  0
  8  9  2  0
  8 10  1  0
 10 11  1  0
M  END
> <Name>
Methyl-N-phenylcarbamate

> <CAS>
001943-79-9

> <VED1>
3.271

> <nHAcc>
3

> <MAXDP>
3.648

> <CIC0>
2.726

> <Log Koc Exp>
1.73

> <Log Koc Pred>
1.65

> <Hat>
0.02

> <Hat Cutoff>
0.161

> <ID Model>
420

> <Smiles>
c1c(cccc1)OC(=O)NC

$$$$
Chlorbufam
  SciTegic03251110552D

 16 16  0  0  0  0            999 V2000
    0.0000    0.0000    0.0000 C   0  0
    0.0000    0.0000    0.0000 C   0  0
    0.0000    0.0000    0.0000 C   0  0
    0.0000    0.0000    0.0000 C   0  0
    0.0000    0.0000    0.0000 C   0  0
    0.0000    0.0000    0.0000 C   0  0
    0.0000    0.0000    0.0000 N   0  0
    0.0000    0.0000    0.0000 C   0  0
    0.0000    0.0000    0.0000 O   0  0
    0.0000    0.0000    0.0000 O   0  0
    0.0000    0.0000    0.0000 C   0  0
    0.0000    0.0000    0.0000 H   0  0
    0.0000    0.0000    0.0000 C   0  0
    0.0000    0.0000    0.0000 C   0  0
    0.0000    0.0000    0.0000 C   0  0
    0.0000    0.0000    0.0000 Cl  0  0
  1  6  1  0
  1  2  2  3
  2  3  1  0
  3  4  2  3
  3 16  1  0
  4  5  1  0
  5  6  2  3
  5  7  1  0
  7  8  1  0
  8  9  2  0
  8 10  1  0
 10 11  1  0
 11 12  1  0
 11 13  1  0
 11 14  1  0
 14 15  3  0
M  END
> <Name>
Chlorbufam

> <CAS>
001967-16-4

> <VED1>
3.818

> <nHAcc>
3

> <MAXDP>
4.221

> <CIC0>
2.931

> <Log Koc Exp>
2.21

> <Log Koc Pred>
2.55

> <Hat>
0.02

> <Hat Cutoff>
0.161

> <ID Model>
421

> <Smiles>
c1cc(cc(c1)NC(=O)O[C@@H](C)C#C)Cl

$$$$
4-Bromophenylurea
  SciTegic03251110552D

 11 11  0  0  0  0            999 V2000
    0.0000    0.0000    0.0000 C   0  0
    0.0000    0.0000    0.0000 C   0  0
    0.0000    0.0000    0.0000 C   0  0
    0.0000    0.0000    0.0000 C   0  0
    0.0000    0.0000    0.0000 C   0  0
    0.0000    0.0000    0.0000 C   0  0
    0.0000    0.0000    0.0000 N   0  0
    0.0000    0.0000    0.0000 C   0  0
    0.0000    0.0000    0.0000 O   0  0
    0.0000    0.0000    0.0000 N   0  0
    0.0000    0.0000    0.0000 Br  0  0
  1  6  1  0
  1  2  2  3
  1 11  1  0
  2  3  1  0
  3  4  2  3
  4  5  1  0
  4  7  1  0
  5  6  2  3
  7  8  1  0
  8  9  2  0
  8 10  1  0
M  END
> <Name>
4-Bromophenylurea

> <CAS>
001967-25-5

> <VED1>
3.267

> <nHAcc>
3

> <MAXDP>
3.353

> <CIC0>
2.295

> <Log Koc Exp>
2.09

> <Log Koc Pred>
1.87

> <Hat>
0.022

> <Hat Cutoff>
0.161

> <ID Model>
422

> <Smiles>
c1(ccc(cc1)NC(=O)N)Br

$$$$
3-Chlorophenylurea
  SciTegic03251110552D

 11 11  0  0  0  0            999 V2000
    0.0000    0.0000    0.0000 C   0  0
    0.0000    0.0000    0.0000 C   0  0
    0.0000    0.0000    0.0000 C   0  0
    0.0000    0.0000    0.0000 C   0  0
    0.0000    0.0000    0.0000 C   0  0
    0.0000    0.0000    0.0000 C   0  0
    0.0000    0.0000    0.0000 Cl  0  0
    0.0000    0.0000    0.0000 N   0  0
    0.0000    0.0000    0.0000 C   0  0
    0.0000    0.0000    0.0000 O   0  0
    0.0000    0.0000    0.0000 N   0  0
  1  6  1  0
  1  2  2  3
  2  3  1  0
  2  8  1  0
  3  4  2  3
  4  5  1  0
  5  6  2  3
  6  7  1  0
  8  9  1  0
  9 10  2  0
  9 11  1  0
M  END
> <Name>
3-Chlorophenylurea

> <CAS>
001967-27-7

> <VED1>
3.272

> <nHAcc>
3

> <MAXDP>
3.348

> <CIC0>
2.295

> <Log Koc Exp>
2.01

> <Log Koc Pred>
1.88

> <Hat>
0.022

> <Hat Cutoff>
0.161

> <ID Model>
423

> <Smiles>
c1c(cccc1Cl)NC(=O)N

$$$$
Chloroxuron
  SciTegic03251110552D

 20 21  0  0  0  0            999 V2000
    0.0000    0.0000    0.0000 C   0  0
    0.0000    0.0000    0.0000 C   0  0
    0.0000    0.0000    0.0000 C   0  0
    0.0000    0.0000    0.0000 C   0  0
    0.0000    0.0000    0.0000 C   0  0
    0.0000    0.0000    0.0000 C   0  0
    0.0000    0.0000    0.0000 O   0  0
    0.0000    0.0000    0.0000 C   0  0
    0.0000    0.0000    0.0000 C   0  0
    0.0000    0.0000    0.0000 C   0  0
    0.0000    0.0000    0.0000 C   0  0
    0.0000    0.0000    0.0000 C   0  0
    0.0000    0.0000    0.0000 C   0  0
    0.0000    0.0000    0.0000 Cl  0  0
    0.0000    0.0000    0.0000 N   0  0
    0.0000    0.0000    0.0000 C   0  0
    0.0000    0.0000    0.0000 O   0  0
    0.0000    0.0000    0.0000 N   0  0
    0.0000    0.0000    0.0000 C   0  0
    0.0000    0.0000    0.0000 C   0  0
  1  6  1  0
  1  2  2  3
  2  3  1  0
  2 15  1  0
  3  4  2  3
  4  5  1  0
  5  6  2  3
  5  7  1  0
  7  8  1  0
  8 13  1  0
  8  9  2  3
  9 10  1  0
 10 11  2  3
 11 12  1  0
 11 14  1  0
 12 13  2  3
 15 16  1  0
 16 17  2  0
 16 18  1  0
 18 19  1  0
 18 20  1  0
M  END
> <Name>
Chloroxuron

> <CAS>
001982-47-4

> <VED1>
4.4

> <nHAcc>
4

> <MAXDP>
4.491

> <CIC0>
3.463

> <Log Koc Exp>
3.53

> <Log Koc Pred>
3.18

> <Hat>
0.023

> <Hat Cutoff>
0.161

> <ID Model>
424

> <Smiles>
c1c(ccc(c1)Oc1ccc(cc1)Cl)NC(=O)N(C)C

$$$$
Siduron
  SciTegic03251110552D

 19 20  0  0  0  0            999 V2000
    0.0000    0.0000    0.0000 C   0  0
    0.0000    0.0000    0.0000 C   0  0
    0.0000    0.0000    0.0000 C   0  0
    0.0000    0.0000    0.0000 C   0  0
    0.0000    0.0000    0.0000 H   0  0
    0.0000    0.0000    0.0000 C   0  0
    0.0000    0.0000    0.0000 H   0  0
    0.0000    0.0000    0.0000 C   0  0
    0.0000    0.0000    0.0000 N   0  0
    0.0000    0.0000    0.0000 C   0  0
    0.0000    0.0000    0.0000 O   0  0
    0.0000    0.0000    0.0000 N   0  0
    0.0000    0.0000    0.0000 C   0  0
    0.0000    0.0000    0.0000 C   0  0
    0.0000    0.0000    0.0000 C   0  0
    0.0000    0.0000    0.0000 C   0  0
    0.0000    0.0000    0.0000 C   0  0
    0.0000    0.0000    0.0000 C   0  0
    0.0000    0.0000    0.0000 C   0  0
  1  8  1  0
  1  2  1  0
  2  3  1  0
  3  4  1  0
  4  5  1  0
  4  6  1  0
  4 19  1  0
  6  7  1  0
  6  8  1  0
  6  9  1  0
  9 10  1  0
 10 11  2  0
 10 12  1  0
 12 13  1  0
 13 18  1  0
 13 14  2  3
 14 15  1  0
 15 16  2  3
 16 17  1  0
 17 18  2  3
M  END
> <Name>
Siduron

> <CAS>
001982-49-6

> <VED1>
4.072

> <nHAcc>
3

> <MAXDP>
4.804

> <CIC0>
3.831

> <Log Koc Exp>
2.47

> <Log Koc Pred>
2.61

> <Hat>
0.043

> <Hat Cutoff>
0.161

> <ID Model>
425

> <Smiles>
C1CC[C@H]([C@@H](C1)NC(=O)Nc1ccccc1)C

$$$$
Butylate
  SciTegic03251110552D

 14 13  0  0  0  0            999 V2000
    0.0000    0.0000    0.0000 C   0  0
    0.0000    0.0000    0.0000 C   0  0
    0.0000    0.0000    0.0000 S   0  0
    0.0000    0.0000    0.0000 C   0  0
    0.0000    0.0000    0.0000 O   0  0
    0.0000    0.0000    0.0000 N   0  0
    0.0000    0.0000    0.0000 C   0  0
    0.0000    0.0000    0.0000 C   0  0
    0.0000    0.0000    0.0000 C   0  0
    0.0000    0.0000    0.0000 C   0  0
    0.0000    0.0000    0.0000 C   0  0
    0.0000    0.0000    0.0000 C   0  0
    0.0000    0.0000    0.0000 C   0  0
    0.0000    0.0000    0.0000 C   0  0
  1  2  1  0
  2  3  1  0
  3  4  1  0
  4  5  2  0
  4  6  1  0
  6  7  1  0
  6 11  1  0
  7  8  1  0
  8  9  1  0
  8 10  1  0
 11 12  1  0
 12 13  1  0
 12 14  1  0
M  END
> <Name>
Butylate

> <CAS>
002008-41-5

> <VED1>
3.674

> <nHAcc>
2

> <MAXDP>
4.703

> <CIC0>
3.84

> <Log Koc Exp>
2.9

> <Log Koc Pred>
2.14

> <Hat>
0.072

> <Hat Cutoff>
0.161

> <ID Model>
426

> <Smiles>
CCSC(=O)N(CC(C)C)CC(C)C

$$$$
2,6-Dichlorobenzamide
  SciTegic03251110552D

 11 11  0  0  0  0            999 V2000
    0.0000    0.0000    0.0000 C   0  0
    0.0000    0.0000    0.0000 C   0  0
    0.0000    0.0000    0.0000 C   0  0
    0.0000    0.0000    0.0000 C   0  0
    0.0000    0.0000    0.0000 C   0  0
    0.0000    0.0000    0.0000 C   0  0
    0.0000    0.0000    0.0000 Cl  0  0
    0.0000    0.0000    0.0000 C   0  0
    0.0000    0.0000    0.0000 O   0  0
    0.0000    0.0000    0.0000 N   0  0
    0.0000    0.0000    0.0000 Cl  0  0
  1  6  1  0
  1  2  2  3
  2  3  1  0
  3  4  2  3
  4  5  1  0
  4 11  1  0
  5  6  2  3
  5  8  1  0
  6  7  1  0
  8  9  2  0
  8 10  1  0
M  END
> <Name>
2,6-Dichlorobenzamide

> <CAS>
002008-58-4

> <VED1>
3.273

> <nHAcc>
2

> <MAXDP>
3.696

> <CIC0>
2.079

> <Log Koc Exp>
0.53

> <Log Koc Pred>
2.19

> <Hat>
0.043

> <Hat Cutoff>
0.161

> <ID Model>
427

> <Smiles>
c1ccc(c(c1Cl)C(=O)N)Cl

$$$$
Methiocarb
  SciTegic03251110552D

 15 15  0  0  0  0            999 V2000
    0.0000    0.0000    0.0000 C   0  0
    0.0000    0.0000    0.0000 C   0  0
    0.0000    0.0000    0.0000 C   0  0
    0.0000    0.0000    0.0000 C   0  0
    0.0000    0.0000    0.0000 C   0  0
    0.0000    0.0000    0.0000 C   0  0
    0.0000    0.0000    0.0000 O   0  0
    0.0000    0.0000    0.0000 C   0  0
    0.0000    0.0000    0.0000 O   0  0
    0.0000    0.0000    0.0000 N   0  0
    0.0000    0.0000    0.0000 C   0  0
    0.0000    0.0000    0.0000 C   0  0
    0.0000    0.0000    0.0000 S   0  0
    0.0000    0.0000    0.0000 C   0  0
    0.0000    0.0000    0.0000 C   0  0
  1  6  1  0
  1  2  2  3
  1 15  1  0
  2  3  1  0
  2 13  1  0
  3  4  2  3
  3 12  1  0
  4  5  1  0
  5  6  2  3
  5  7  1  0
  7  8  1  0
  8  9  2  0
  8 10  1  0
 10 11  1  0
 13 14  1  0
M  END
> <Name>
Methiocarb

> <CAS>
002032-65-7

> <VED1>
3.807

> <nHAcc>
3

> <MAXDP>
4.02

> <CIC0>
3.289

> <Log Koc Exp>
2.32

> <Log Koc Pred>
2.47

> <Hat>
0.018

> <Hat Cutoff>
0.161

> <ID Model>
428

> <Smiles>
c1(c(c(cc(c1)OC(=O)NC)C)SC)C

$$$$
4,4'-Dichlorobiphenyl
  SciTegic03251110552D

 14 15  0  0  0  0            999 V2000
    0.0000    0.0000    0.0000 C   0  0
    0.0000    0.0000    0.0000 C   0  0
    0.0000    0.0000    0.0000 C   0  0
    0.0000    0.0000    0.0000 C   0  0
    0.0000    0.0000    0.0000 C   0  0
    0.0000    0.0000    0.0000 C   0  0
    0.0000    0.0000    0.0000 Cl  0  0
    0.0000    0.0000    0.0000 C   0  0
    0.0000    0.0000    0.0000 C   0  0
    0.0000    0.0000    0.0000 C   0  0
    0.0000    0.0000    0.0000 C   0  0
    0.0000    0.0000    0.0000 C   0  0
    0.0000    0.0000    0.0000 C   0  0
    0.0000    0.0000    0.0000 Cl  0  0
  1  6  1  0
  1  2  2  3
  2  3  1  0
  2  8  1  0
  3  4  2  3
  4  5  1  0
  5  6  2  3
  5  7  1  0
  8 13  1  0
  8  9  2  3
  9 10  1  0
 10 11  2  3
 11 12  1  0
 11 14  1  0
 12 13  2  3
M  END
> <Name>
4,4'-Dichlorobiphenyl

> <CAS>
002050-68-2

> <VED1>
3.686

> <nHAcc>
0

> <MAXDP>
1.692

> <CIC0>
3.137

> <Log Koc Exp>
4.3

> <Log Koc Pred>
4

> <Hat>
0.037

> <Hat Cutoff>
0.161

> <ID Model>
429

> <Smiles>
c1c(ccc(c1)Cl)c1ccc(cc1)Cl

$$$$
2-Chlorobiphenyl
  SciTegic03251110552D

 13 14  0  0  0  0            999 V2000
    0.0000    0.0000    0.0000 C   0  0
    0.0000    0.0000    0.0000 C   0  0
    0.0000    0.0000    0.0000 C   0  0
    0.0000    0.0000    0.0000 C   0  0
    0.0000    0.0000    0.0000 C   0  0
    0.0000    0.0000    0.0000 C   0  0
    0.0000    0.0000    0.0000 C   0  0
    0.0000    0.0000    0.0000 C   0  0
    0.0000    0.0000    0.0000 C   0  0
    0.0000    0.0000    0.0000 C   0  0
    0.0000    0.0000    0.0000 C   0  0
    0.0000    0.0000    0.0000 C   0  0
    0.0000    0.0000    0.0000 Cl  0  0
  1  6  1  0
  1  2  2  3
  2  3  1  0
  2  7  1  0
  3  4  2  3
  4  5  1  0
  5  6  2  3
  7 12  1  0
  7  8  2  3
  8  9  1  0
  8 13  1  0
  9 10  2  3
 10 11  1  0
 11 12  2  3
M  END
> <Name>
2-Chlorobiphenyl

> <CAS>
002051-60-7

> <VED1>
3.562

> <nHAcc>
0

> <MAXDP>
1.948

> <CIC0>
3.252

> <Log Koc Exp>
3.52

> <Log Koc Pred>
3.62

> <Hat>
0.033

> <Hat Cutoff>
0.161

> <ID Model>
430

> <Smiles>
c1c(cccc1)c1c(cccc1)Cl

$$$$
3-Chlorobiphenyl
  SciTegic03251110552D

 13 14  0  0  0  0            999 V2000
    0.0000    0.0000    0.0000 C   0  0
    0.0000    0.0000    0.0000 C   0  0
    0.0000    0.0000    0.0000 C   0  0
    0.0000    0.0000    0.0000 C   0  0
    0.0000    0.0000    0.0000 C   0  0
    0.0000    0.0000    0.0000 C   0  0
    0.0000    0.0000    0.0000 C   0  0
    0.0000    0.0000    0.0000 C   0  0
    0.0000    0.0000    0.0000 C   0  0
    0.0000    0.0000    0.0000 C   0  0
    0.0000    0.0000    0.0000 C   0  0
    0.0000    0.0000    0.0000 C   0  0
    0.0000    0.0000    0.0000 Cl  0  0
  1  6  1  0
  1  2  2  3
  2  3  1  0
  2  7  1  0
  3  4  2  3
  4  5  1  0
  5  6  2  3
  7 12  1  0
  7  8  2  3
  8  9  1  0
  9 10  2  3
  9 13  1  0
 10 11  1  0
 11 12  2  3
M  END
> <Name>
3-Chlorobiphenyl

> <CAS>
002051-61-8

> <VED1>
3.563

> <nHAcc>
0

> <MAXDP>
1.784

> <CIC0>
3.252

> <Log Koc Exp>
4.42

> <Log Koc Pred>
3.67

> <Hat>
0.033

> <Hat Cutoff>
0.161

> <ID Model>
431

> <Smiles>
c1c(cccc1)c1cc(ccc1)Cl

$$$$
2,6-dinitro-N-n-propyl-trifluoro-p-toluidine
  SciTegic03251110552D

 20 20  0  0  0  0            999 V2000
    0.0000    0.0000    0.0000 C   0  0
    0.0000    0.0000    0.0000 C   0  0
    0.0000    0.0000    0.0000 C   0  0
    0.0000    0.0000    0.0000 C   0  0
    0.0000    0.0000    0.0000 C   0  0
    0.0000    0.0000    0.0000 C   0  0
    0.0000    0.0000    0.0000 N   0  0
    0.0000    0.0000    0.0000 O   0  0
    0.0000    0.0000    0.0000 O   0  0
    0.0000    0.0000    0.0000 N   0  0
    0.0000    0.0000    0.0000 C   0  0
    0.0000    0.0000    0.0000 C   0  0
    0.0000    0.0000    0.0000 C   0  0
    0.0000    0.0000    0.0000 N   0  0
    0.0000    0.0000    0.0000 O   0  0
    0.0000    0.0000    0.0000 O   0  0
    0.0000    0.0000    0.0000 C   0  0
    0.0000    0.0000    0.0000 F   0  0
    0.0000    0.0000    0.0000 F   0  0
    0.0000    0.0000    0.0000 F   0  0
  1  6  1  0
  1  2  2  3
  2  3  1  0
  2 17  1  0
  3  4  2  3
  4  5  1  0
  4 14  1  0
  5  6  2  3
  5 10  1  0
  6  7  1  0
  7  8  1  0
  7  9  1  0
 10 11  1  0
 11 12  1  0
 12 13  1  0
 14 15  1  0
 14 16  1  0
 17 18  1  0
 17 19  1  0
 17 20  1  0
M  END
> <Name>
2,6-dinitro-N-n-propyl-trifluoro-p-toluidine

> <CAS>
002077-99-8

> <VED1>
4.391

> <nHAcc>
8

> <MAXDP>
4.593

> <CIC0>
2.798

> <Log Koc Exp>
3.61

> <Log Koc Pred>
1.99

> <Hat>
0.082

> <Hat Cutoff>
0.161

> <ID Model>
432

> <Smiles>
c1c(cc(c(c1N(O)O)NCCC)N(O)O)C(F)(F)F

$$$$
Ethyl 1-naphthaleneacetate
  SciTegic03251110552D

 16 17  0  0  0  0            999 V2000
    0.0000    0.0000    0.0000 C   0  0
    0.0000    0.0000    0.0000 C   0  0
    0.0000    0.0000    0.0000 C   0  0
    0.0000    0.0000    0.0000 C   0  0
    0.0000    0.0000    0.0000 C   0  0
    0.0000    0.0000    0.0000 C   0  0
    0.0000    0.0000    0.0000 C   0  0
    0.0000    0.0000    0.0000 C   0  0
    0.0000    0.0000    0.0000 O   0  0
    0.0000    0.0000    0.0000 O   0  0
    0.0000    0.0000    0.0000 C   0  0
    0.0000    0.0000    0.0000 C   0  0
    0.0000    0.0000    0.0000 C   0  0
    0.0000    0.0000    0.0000 C   0  0
    0.0000    0.0000    0.0000 C   0  0
    0.0000    0.0000    0.0000 C   0  0
  1  6  1  0
  1  2  2  3
  2  3  1  0
  3  4  2  3
  4 16  1  0
  4  5  1  0
  5  6  2  3
  5 13  1  0
  6  7  1  0
  7  8  1  0
  8  9  2  0
  8 10  1  0
 10 11  1  0
 11 12  1  0
 13 14  2  3
 14 15  1  0
 15 16  2  3
M  END
> <Name>
Ethyl 1-naphthaleneacetate

> <CAS>
002122-70-5

> <VED1>
3.938

> <nHAcc>
2

> <MAXDP>
4.434

> <CIC0>
3.62

> <Log Koc Exp>
2.48

> <Log Koc Pred>
2.85

> <Hat>
0.042

> <Hat Cutoff>
0.161

> <ID Model>
434

> <Smiles>
c1ccc2c(c1CC(=O)OCC)cccc2

$$$$
2,3,5,6-Tetrachloroterephthalic acid
  SciTegic03251110552D

 16 16  0  0  0  0            999 V2000
    0.0000    0.0000    0.0000 C   0  0
    0.0000    0.0000    0.0000 C   0  0
    0.0000    0.0000    0.0000 C   0  0
    0.0000    0.0000    0.0000 C   0  0
    0.0000    0.0000    0.0000 C   0  0
    0.0000    0.0000    0.0000 C   0  0
    0.0000    0.0000    0.0000 Cl  0  0
    0.0000    0.0000    0.0000 Cl  0  0
    0.0000    0.0000    0.0000 C   0  0
    0.0000    0.0000    0.0000 O   0  0
    0.0000    0.0000    0.0000 O   0  0
    0.0000    0.0000    0.0000 Cl  0  0
    0.0000    0.0000    0.0000 Cl  0  0
    0.0000    0.0000    0.0000 C   0  0
    0.0000    0.0000    0.0000 O   0  0
    0.0000    0.0000    0.0000 O   0  0
  1  6  1  0
  1  2  2  3
  1 14  1  0
  2  3  1  0
  2 13  1  0
  3  4  2  3
  3 12  1  0
  4  5  1  0
  4  9  1  0
  5  6  2  3
  5  8  1  0
  6  7  1  0
  9 10  2  0
  9 11  1  0
 14 15  2  0
 14 16  1  0
M  END
> <Name>
2,3,5,6-Tetrachloroterephthalic acid

> <CAS>
002136-79-0

> <VED1>
3.938

> <nHAcc>
4

> <MAXDP>
3.795

> <CIC0>
2.333

> <Log Koc Exp>
3.51

> <Log Koc Pred>
2.79

> <Hat>
0.042

> <Hat Cutoff>
0.161

> <ID Model>
435

> <Smiles>
c1(c(c(c(c(c1Cl)Cl)C(=O)O)Cl)Cl)C(=O)O

$$$$
Hydroxyatrazine
  SciTegic03251110552D

 14 14  0  0  0  0            999 V2000
    0.0000    0.0000    0.0000 C   0  0
    0.0000    0.0000    0.0000 N   0  0
    0.0000    0.0000    0.0000 C   0  0
    0.0000    0.0000    0.0000 N   0  0
    0.0000    0.0000    0.0000 C   0  0
    0.0000    0.0000    0.0000 N   0  0
    0.0000    0.0000    0.0000 N   0  0
    0.0000    0.0000    0.0000 C   0  0
    0.0000    0.0000    0.0000 C   0  0
    0.0000    0.0000    0.0000 C   0  0
    0.0000    0.0000    0.0000 O   0  0
    0.0000    0.0000    0.0000 N   0  0
    0.0000    0.0000    0.0000 C   0  0
    0.0000    0.0000    0.0000 C   0  0
  1  6  1  0
  1  2  2  3
  1 12  1  0
  2  3  1  0
  3  4  2  3
  3 11  1  0
  4  5  1  0
  5  6  2  3
  5  7  1  0
  7  8  1  0
  8  9  1  0
  8 10  1  0
 12 13  1  0
 13 14  1  0
M  END
> <Name>
Hydroxyatrazine

> <CAS>
002163-68-0

> <VED1>
3.677

> <nHAcc>
6

> <MAXDP>
3.191

> <CIC0>
3.249

> <Log Koc Exp>
2.95

> <Log Koc Pred>
1.45

> <Hat>
0.075

> <Hat Cutoff>
0.161

> <ID Model>
437

> <Smiles>
c1(nc(nc(n1)NC(C)C)O)NCC

$$$$
Fluometuron
  SciTegic03251110552D

 16 16  0  0  0  0            999 V2000
    0.0000    0.0000    0.0000 C   0  0
    0.0000    0.0000    0.0000 C   0  0
    0.0000    0.0000    0.0000 C   0  0
    0.0000    0.0000    0.0000 C   0  0
    0.0000    0.0000    0.0000 C   0  0
    0.0000    0.0000    0.0000 C   0  0
    0.0000    0.0000    0.0000 C   0  0
    0.0000    0.0000    0.0000 F   0  0
    0.0000    0.0000    0.0000 F   0  0
    0.0000    0.0000    0.0000 F   0  0
    0.0000    0.0000    0.0000 N   0  0
    0.0000    0.0000    0.0000 C   0  0
    0.0000    0.0000    0.0000 O   0  0
    0.0000    0.0000    0.0000 N   0  0
    0.0000    0.0000    0.0000 C   0  0
    0.0000    0.0000    0.0000 C   0  0
  1  6  1  0
  1  2  2  3
  2  3  1  0
  2 11  1  0
  3  4  2  3
  4  5  1  0
  5  6  2  3
  6  7  1  0
  7  8  1  0
  7  9  1  0
  7 10  1  0
 11 12  1  0
 12 13  2  0
 12 14  1  0
 14 15  1  0
 14 16  1  0
M  END
> <Name>
Fluometuron

> <CAS>
002164-17-2

> <VED1>
3.945

> <nHAcc>
6

> <MAXDP>
4.341

> <CIC0>
2.89

> <Log Koc Exp>
2

> <Log Koc Pred>
1.78

> <Hat>
0.035

> <Hat Cutoff>
0.161

> <ID Model>
438

> <Smiles>
c1c(cccc1C(F)(F)F)NC(=O)N(C)C

$$$$
Molinate
  SciTegic03251110552D

 12 12  0  0  0  0            999 V2000
    0.0000    0.0000    0.0000 O   0  0
    0.0000    0.0000    0.0000 C   0  0
    0.0000    0.0000    0.0000 N   0  0
    0.0000    0.0000    0.0000 C   0  0
    0.0000    0.0000    0.0000 C   0  0
    0.0000    0.0000    0.0000 C   0  0
    0.0000    0.0000    0.0000 C   0  0
    0.0000    0.0000    0.0000 C   0  0
    0.0000    0.0000    0.0000 C   0  0
    0.0000    0.0000    0.0000 S   0  0
    0.0000    0.0000    0.0000 C   0  0
    0.0000    0.0000    0.0000 C   0  0
  1  2  2  0
  2  3  1  0
  2 10  1  0
  3  9  1  0
  3  4  1  0
  4  5  1  0
  5  6  1  0
  6  7  1  0
  7  8  1  0
  8  9  1  0
 10 11  1  0
 11 12  1  0
M  END
> <Name>
Molinate

> <CAS>
002212-67-1

> <VED1>
3.414

> <nHAcc>
2

> <MAXDP>
4.44

> <CIC0>
3.38

> <Log Koc Exp>
1.94

> <Log Koc Pred>
1.83

> <Hat>
0.053

> <Hat Cutoff>
0.161

> <ID Model>
439

> <Smiles>
O=C(N1CCCCCC1)SCC

$$$$
Octachloronaphthalene
  SciTegic03251110552D

 18 19  0  0  0  0            999 V2000
    0.0000    0.0000    0.0000 Cl  0  0
    0.0000    0.0000    0.0000 C   0  0
    0.0000    0.0000    0.0000 C   0  0
    0.0000    0.0000    0.0000 C   0  0
    0.0000    0.0000    0.0000 Cl  0  0
    0.0000    0.0000    0.0000 C   0  0
    0.0000    0.0000    0.0000 C   0  0
    0.0000    0.0000    0.0000 C   0  0
    0.0000    0.0000    0.0000 C   0  0
    0.0000    0.0000    0.0000 C   0  0
    0.0000    0.0000    0.0000 C   0  0
    0.0000    0.0000    0.0000 Cl  0  0
    0.0000    0.0000    0.0000 C   0  0
    0.0000    0.0000    0.0000 Cl  0  0
    0.0000    0.0000    0.0000 Cl  0  0
    0.0000    0.0000    0.0000 Cl  0  0
    0.0000    0.0000    0.0000 Cl  0  0
    0.0000    0.0000    0.0000 Cl  0  0
  1  2  1  0
  2 13  1  0
  2  3  2  3
  3  9  1  0
  3  4  1  0
  4  5  1  0
  4  6  2  3
  6  7  1  0
  6 18  1  0
  7  8  2  3
  7 17  1  0
  8  9  1  0
  8 16  1  0
  9 10  2  3
 10 11  1  0
 10 15  1  0
 11 12  1  0
 11 13  2  3
 13 14  1  0
M  END
> <Name>
Octachloronaphthalene

> <CAS>
002234-13-1

> <VED1>
4.189

> <nHAcc>
0

> <MAXDP>
1.974

> <CIC0>
3.179

> <Log Koc Exp>
5.89

> <Log Koc Pred>
4.95

> <Hat>
0.072

> <Hat Cutoff>
0.161

> <ID Model>
440

> <Smiles>
Clc1c2c(Cl)c(c(c(c2c(c(Cl)c1Cl)Cl)Cl)Cl)Cl

$$$$
Diallate
  SciTegic03251110552D

 15 14  0  0  0  0            999 V2000
    0.0000    0.0000    0.0000 C   0  0
    0.0000    0.0000    0.0000 C   0  0
    0.0000    0.0000    0.0000 C   0  0
    0.0000    0.0000    0.0000 N   0  0
    0.0000    0.0000    0.0000 C   0  0
    0.0000    0.0000    0.0000 C   0  0
    0.0000    0.0000    0.0000 C   0  0
    0.0000    0.0000    0.0000 C   0  0
    0.0000    0.0000    0.0000 O   0  0
    0.0000    0.0000    0.0000 S   0  0
    0.0000    0.0000    0.0000 C   0  0
    0.0000    0.0000    0.0000 C   0  0
    0.0000    0.0000    0.0000 C   0  0
    0.0000    0.0000    0.0000 Cl  0  0
    0.0000    0.0000    0.0000 Cl  0  0
  1  2  1  0
  2  3  1  0
  2  4  1  0
  4  5  1  0
  4  8  1  0
  5  6  1  0
  5  7  1  0
  8  9  2  0
  8 10  1  0
 10 11  1  0
 11 12  1  0
 12 13  2  3
 12 15  1  0
 13 14  1  0
M  END
> <Name>
Diallate

> <CAS>
002303-16-4

> <VED1>
3.812

> <nHAcc>
2

> <MAXDP>
4.806

> <CIC0>
3.272

> <Log Koc Exp>
3.28

> <Log Koc Pred>
2.58

> <Hat>
0.049

> <Hat Cutoff>
0.161

> <ID Model>
441

> <Smiles>
CC(C)N(C(C)C)C(=O)SCC(=CCl)Cl

$$$$
Triallate
  SciTegic03251110552D

 16 15  0  0  0  0            999 V2000
    0.0000    0.0000    0.0000 C   0  0
    0.0000    0.0000    0.0000 C   0  0
    0.0000    0.0000    0.0000 C   0  0
    0.0000    0.0000    0.0000 N   0  0
    0.0000    0.0000    0.0000 C   0  0
    0.0000    0.0000    0.0000 C   0  0
    0.0000    0.0000    0.0000 C   0  0
    0.0000    0.0000    0.0000 C   0  0
    0.0000    0.0000    0.0000 O   0  0
    0.0000    0.0000    0.0000 S   0  0
    0.0000    0.0000    0.0000 C   0  0
    0.0000    0.0000    0.0000 C   0  0
    0.0000    0.0000    0.0000 C   0  0
    0.0000    0.0000    0.0000 Cl  0  0
    0.0000    0.0000    0.0000 Cl  0  0
    0.0000    0.0000    0.0000 Cl  0  0
  1  2  1  0
  2  3  1  0
  2  4  1  0
  4  5  1  0
  4  8  1  0
  5  6  1  0
  5  7  1  0
  8  9  2  0
  8 10  1  0
 10 11  1  0
 11 12  1  0
 12 13  2  3
 12 16  1  0
 13 14  1  0
 13 15  1  0
M  END
> <Name>
Triallate

> <CAS>
002303-17-5

> <VED1>
3.943

> <nHAcc>
2

> <MAXDP>
4.875

> <CIC0>
3.187

> <Log Koc Exp>
3.35

> <Log Koc Pred>
2.87

> <Hat>
0.053

> <Hat Cutoff>
0.161

> <ID Model>
442

> <Smiles>
CC(C)N(C(C)C)C(=O)SCC(=C(Cl)Cl)Cl

$$$$
Pentanochlor
  SciTegic03251110552D

 17 17  0  0  0  0            999 V2000
    0.0000    0.0000    0.0000 C   0  0
    0.0000    0.0000    0.0000 C   0  0
    0.0000    0.0000    0.0000 C   0  0
    0.0000    0.0000    0.0000 C   0  0
    0.0000    0.0000    0.0000 C   0  0
    0.0000    0.0000    0.0000 C   0  0
    0.0000    0.0000    0.0000 N   0  0
    0.0000    0.0000    0.0000 C   0  0
    0.0000    0.0000    0.0000 O   0  0
    0.0000    0.0000    0.0000 C   0  0
    0.0000    0.0000    0.0000 H   0  0
    0.0000    0.0000    0.0000 C   0  0
    0.0000    0.0000    0.0000 C   0  0
    0.0000    0.0000    0.0000 C   0  0
    0.0000    0.0000    0.0000 C   0  0
    0.0000    0.0000    0.0000 Cl  0  0
    0.0000    0.0000    0.0000 C   0  0
  1  6  1  0
  1  2  2  3
  1 17  1  0
  2  3  1  0
  2 16  1  0
  3  4  2  3
  4  5  1  0
  4  7  1  0
  5  6  2  3
  7  8  1  0
  8  9  2  0
  8 10  1  0
 10 11  1  0
 10 12  1  0
 10 13  1  0
 13 14  1  0
 14 15  1  0
M  END
> <Name>
Pentanochlor

> <CAS>
002307-68-8

> <VED1>
3.938

> <nHAcc>
2

> <MAXDP>
4.744

> <CIC0>
3.622

> <Log Koc Exp>
2.76

> <Log Koc Pred>
2.75

> <Hat>
0.051

> <Hat Cutoff>
0.161

> <ID Model>
443

> <Smiles>
c1(c(cc(cc1)NC(=O)[C@@H](C)CCC)Cl)C

$$$$
Phosalone
  SciTegic03251110552D

 21 22  0  0  0  0            999 V2000
    0.0000    0.0000    0.0000 C   0  0
    0.0000    0.0000    0.0000 C   0  0
    0.0000    0.0000    0.0000 O   0  0
    0.0000    0.0000    0.0000 P   0  0
    0.0000    0.0000    0.0000 S   0  0
    0.0000    0.0000    0.0000 O   0  0
    0.0000    0.0000    0.0000 C   0  0
    0.0000    0.0000    0.0000 C   0  0
    0.0000    0.0000    0.0000 S   0  0
    0.0000    0.0000    0.0000 C   0  0
    0.0000    0.0000    0.0000 N   0  0
    0.0000    0.0000    0.0000 C   0  0
    0.0000    0.0000    0.0000 O   0  0
    0.0000    0.0000    0.0000 O   0  0
    0.0000    0.0000    0.0000 C   0  0
    0.0000    0.0000    0.0000 C   0  0
    0.0000    0.0000    0.0000 C   0  0
    0.0000    0.0000    0.0000 C   0  0
    0.0000    0.0000    0.0000 C   0  0
    0.0000    0.0000    0.0000 C   0  0
    0.0000    0.0000    0.0000 Cl  0  0
  1  2  1  0
  2  3  1  0
  3  4  1  0
  4  5  2  0
  4  6  1  0
  4  9  1  0
  6  7  1  0
  7  8  1  0
  9 10  1  0
 10 11  1  0
 11 16  1  0
 11 12  1  0
 12 13  2  0
 12 14  1  0
 14 15  1  0
 15 20  1  0
 15 16  2  3
 16 17  1  0
 17 18  2  3
 18 19  1  0
 19 20  2  3
 19 21  1  0
M  END
> <Name>
Phosalone

> <CAS>
002310-17-0

> <VED1>
4.51

> <nHAcc>
5

> <MAXDP>
4.919

> <CIC0>
3.101

> <Log Koc Exp>
2.98

> <Log Koc Pred>
3.06

> <Hat>
0.036

> <Hat Cutoff>
0.161

> <ID Model>
444

> <Smiles>
CCOP(=S)(OCC)SCn1c(=O)oc2c1ccc(c2)Cl

$$$$
3,4-Dichlorophenylurea
  SciTegic03251110552D

 12 12  0  0  0  0            999 V2000
    0.0000    0.0000    0.0000 C   0  0
    0.0000    0.0000    0.0000 C   0  0
    0.0000    0.0000    0.0000 C   0  0
    0.0000    0.0000    0.0000 C   0  0
    0.0000    0.0000    0.0000 C   0  0
    0.0000    0.0000    0.0000 C   0  0
    0.0000    0.0000    0.0000 N   0  0
    0.0000    0.0000    0.0000 C   0  0
    0.0000    0.0000    0.0000 O   0  0
    0.0000    0.0000    0.0000 N   0  0
    0.0000    0.0000    0.0000 Cl  0  0
    0.0000    0.0000    0.0000 Cl  0  0
  1  6  1  0
  1  2  2  3
  1 12  1  0
  2  3  1  0
  2 11  1  0
  3  4  2  3
  4  5  1  0
  4  7  1  0
  5  6  2  3
  7  8  1  0
  8  9  2  0
  8 10  1  0
M  END
> <Name>
3,4-Dichlorophenylurea

> <CAS>
002327-02-8

> <VED1>
3.412

> <nHAcc>
3

> <MAXDP>
3.4

> <CIC0>
2.176

> <Log Koc Exp>
2.53

> <Log Koc Pred>
2.2

> <Hat>
0.028

> <Hat Cutoff>
0.161

> <ID Model>
446

> <Smiles>
c1(c(cc(cc1)NC(=O)N)Cl)Cl

$$$$
Mirex
  SciTegic03251110552D

 22 26  0  0  0  0            999 V2000
    0.0000    0.0000    0.0000 Cl  0  0
    0.0000    0.0000    0.0000 C   0  0
    0.0000    0.0000    0.0000 C   0  0
    0.0000    0.0000    0.0000 C   0  0
    0.0000    0.0000    0.0000 C   0  0
    0.0000    0.0000    0.0000 Cl  0  0
    0.0000    0.0000    0.0000 C   0  0
    0.0000    0.0000    0.0000 Cl  0  0
    0.0000    0.0000    0.0000 C   0  0
    0.0000    0.0000    0.0000 Cl  0  0
    0.0000    0.0000    0.0000 C   0  0
    0.0000    0.0000    0.0000 C   0  0
    0.0000    0.0000    0.0000 Cl  0  0
    0.0000    0.0000    0.0000 Cl  0  0
    0.0000    0.0000    0.0000 C   0  0
    0.0000    0.0000    0.0000 Cl  0  0
    0.0000    0.0000    0.0000 Cl  0  0
    0.0000    0.0000    0.0000 C   0  0
    0.0000    0.0000    0.0000 Cl  0  0
    0.0000    0.0000    0.0000 Cl  0  0
    0.0000    0.0000    0.0000 Cl  0  0
    0.0000    0.0000    0.0000 Cl  0  0
  1  2  1  0
  2  9  1  0
  2 15  1  0
  2  3  1  0
  3 18  1  0
  3  4  1  0
  3 22  1  0
  4 15  1  0
  4  5  1  0
  4 21  1  0
  5 11  1  0
  5  6  1  0
  5  7  1  0
  7  8  1  0
  7  9  1  0
  7 18  1  0
  9 10  1  0
  9 11  1  0
 11 12  1  0
 11 17  1  0
 12 13  1  0
 12 14  1  0
 12 15  1  0
 15 16  1  0
 18 19  1  0
 18 20  1  0
M  END
> <Name>
Mirex

> <CAS>
002385-85-5

> <VED1>
4.626

> <nHAcc>
0

> <MAXDP>
2.678

> <CIC0>
3.465

> <Log Koc Exp>
6

> <Log Koc Pred>
5.56

> <Hat>
0.111

> <Hat Cutoff>
0.161

> <ID Model>
447

> <Smiles>
Cl[C@]12[C@]3([C@@]4([C@]5(Cl)[C@@](Cl)([C@@]1(Cl)[C@@]5(C(Cl)(Cl)[C@]24Cl)Cl)C3(Cl)Cl)Cl)Cl

$$$$
Xylicarb
  SciTegic03251110552D

 13 13  0  0  0  0            999 V2000
    0.0000    0.0000    0.0000 C   0  0
    0.0000    0.0000    0.0000 C   0  0
    0.0000    0.0000    0.0000 C   0  0
    0.0000    0.0000    0.0000 C   0  0
    0.0000    0.0000    0.0000 C   0  0
    0.0000    0.0000    0.0000 C   0  0
    0.0000    0.0000    0.0000 C   0  0
    0.0000    0.0000    0.0000 C   0  0
    0.0000    0.0000    0.0000 O   0  0
    0.0000    0.0000    0.0000 C   0  0
    0.0000    0.0000    0.0000 O   0  0
    0.0000    0.0000    0.0000 N   0  0
    0.0000    0.0000    0.0000 C   0  0
  1  6  1  0
  1  2  2  3
  1  9  1  0
  2  3  1  0
  3  4  2  3
  4  5  1  0
  4  8  1  0
  5  6  2  3
  5  7  1  0
  9 10  1  0
 10 11  2  0
 10 12  1  0
 12 13  1  0
M  END
> <Name>
Xylicarb

> <CAS>
002425-10-7

> <VED1>
3.55

> <nHAcc>
3

> <MAXDP>
3.844

> <CIC0>
3.205

> <Log Koc Exp>
1.71

> <Log Koc Pred>
2.01

> <Hat>
0.021

> <Hat Cutoff>
0.161

> <ID Model>
448

> <Smiles>
c1(ccc(c(c1)C)C)OC(=O)NC

$$$$
Benzaloxime-N-methylcarbamate
  SciTegic03251110552D

 13 13  0  0  0  0            999 V2000
    0.0000    0.0000    0.0000 C   0  0
    0.0000    0.0000    0.0000 C   0  0
    0.0000    0.0000    0.0000 C   0  0
    0.0000    0.0000    0.0000 C   0  0
    0.0000    0.0000    0.0000 C   0  0
    0.0000    0.0000    0.0000 C   0  0
    0.0000    0.0000    0.0000 C   0  0
    0.0000    0.0000    0.0000 N   0  0
    0.0000    0.0000    0.0000 O   0  0
    0.0000    0.0000    0.0000 C   0  0
    0.0000    0.0000    0.0000 O   0  0
    0.0000    0.0000    0.0000 N   0  0
    0.0000    0.0000    0.0000 C   0  0
  1  6  1  0
  1  2  2  3
  2  3  1  0
  3  4  2  3
  4  5  1  0
  4  7  1  0
  5  6  2  3
  7  8  2  3
  8  9  1  0
  9 10  1  0
 10 11  2  0
 10 12  1  0
 12 13  1  0
M  END
> <Name>
Benzaloxime-N-methylcarbamate

> <CAS>
002426-12-2

> <VED1>
3.557

> <nHAcc>
4

> <MAXDP>
3.555

> <CIC0>
2.859

> <Log Koc Exp>
1.8

> <Log Koc Pred>
1.89

> <Hat>
0.018

> <Hat Cutoff>
0.161

> <ID Model>
449

> <Smiles>
c1ccc(cc1)C=NOC(=O)NC

$$$$
Oxythioquinox
  SciTegic03251110552D

 15 17  0  0  0  0            999 V2000
    0.0000    0.0000    0.0000 C   0  0
    0.0000    0.0000    0.0000 C   0  0
    0.0000    0.0000    0.0000 C   0  0
    0.0000    0.0000    0.0000 C   0  0
    0.0000    0.0000    0.0000 C   0  0
    0.0000    0.0000    0.0000 C   0  0
    0.0000    0.0000    0.0000 N   0  0
    0.0000    0.0000    0.0000 C   0  0
    0.0000    0.0000    0.0000 C   0  0
    0.0000    0.0000    0.0000 N   0  0
    0.0000    0.0000    0.0000 S   0  0
    0.0000    0.0000    0.0000 C   0  0
    0.0000    0.0000    0.0000 O   0  0
    0.0000    0.0000    0.0000 S   0  0
    0.0000    0.0000    0.0000 C   0  0
  1  6  1  0
  1  2  2  3
  1 15  1  0
  2  3  1  0
  3  4  2  3
  4 10  1  0
  4  5  1  0
  5  6  2  3
  5  7  1  0
  7  8  2  3
  8 14  1  0
  8  9  1  0
  9 10  2  3
  9 11  1  0
 11 12  1  0
 12 13  2  0
 12 14  1  0
M  END
> <Name>
Oxythioquinox

> <CAS>
002439-01-2

> <VED1>
3.823

> <nHAcc>
3

> <MAXDP>
4.192

> <CIC0>
2.511

> <Log Koc Exp>
3.36

> <Log Koc Pred>
2.03

> <Hat>
0.03

> <Hat Cutoff>
0.161

> <ID Model>
450

> <Smiles>
c1(ccc2c(c1)nc1c(n2)sc(=O)s1)C

$$$$
Tetrachloroguaiacol
  SciTegic03251110552D

 13 13  0  0  0  0            999 V2000
    0.0000    0.0000    0.0000 O   0  0
    0.0000    0.0000    0.0000 C   0  0
    0.0000    0.0000    0.0000 C   0  0
    0.0000    0.0000    0.0000 C   0  0
    0.0000    0.0000    0.0000 C   0  0
    0.0000    0.0000    0.0000 Cl  0  0
    0.0000    0.0000    0.0000 C   0  0
    0.0000    0.0000    0.0000 C   0  0
    0.0000    0.0000    0.0000 O   0  0
    0.0000    0.0000    0.0000 C   0  0
    0.0000    0.0000    0.0000 Cl  0  0
    0.0000    0.0000    0.0000 Cl  0  0
    0.0000    0.0000    0.0000 Cl  0  0
  1  2  1  0
  2  8  1  0
  2  3  2  3
  3  4  1  0
  3 13  1  0
  4  5  2  3
  4 12  1  0
  5  6  1  0
  5  7  1  0
  7  8  2  3
  7 11  1  0
  8  9  1  0
  9 10  1  0
M  END
> <Name>
Tetrachloroguaiacol

> <CAS>
002539-17-5

> <VED1>
3.553

> <nHAcc>
2

> <MAXDP>
3.399

> <CIC0>
2.215

> <Log Koc Exp>
2.85

> <Log Koc Pred>
2.82

> <Hat>
0.041

> <Hat Cutoff>
0.161

> <ID Model>
451

> <Smiles>
Oc1c(c(c(Cl)c(c1OC)Cl)Cl)Cl

$$$$
Etridiazole
  SciTegic03251110552D

 12 12  0  0  0  0            999 V2000
    0.0000    0.0000    0.0000 C   0  0
    0.0000    0.0000    0.0000 C   0  0
    0.0000    0.0000    0.0000 O   0  0
    0.0000    0.0000    0.0000 C   0  0
    0.0000    0.0000    0.0000 N   0  0
    0.0000    0.0000    0.0000 C   0  0
    0.0000    0.0000    0.0000 N   0  0
    0.0000    0.0000    0.0000 S   0  0
    0.0000    0.0000    0.0000 C   0  0
    0.0000    0.0000    0.0000 Cl  0  0
    0.0000    0.0000    0.0000 Cl  0  0
    0.0000    0.0000    0.0000 Cl  0  0
  1  2  1  0
  2  3  1  0
  3  4  1  0
  4  8  1  0
  4  5  2  3
  5  6  1  0
  6  7  2  3
  6  9  1  0
  7  8  1  0
  9 10  1  0
  9 11  1  0
  9 12  1  0
M  END
> <Name>
Etridiazole

> <CAS>
002593-15-9

> <VED1>
3.405

> <nHAcc>
3

> <MAXDP>
1.551

> <CIC0>
1.763

> <Log Koc Exp>
3

> <Log Koc Pred>
2.89

> <Hat>
0.076

> <Hat Cutoff>
0.161

> <ID Model>
452

> <Smiles>
CCOc1nc(ns1)C(Cl)(Cl)Cl

$$$$
6-Aminochrysene
  SciTegic03251110552D

 19 22  0  0  0  0            999 V2000
    0.0000    0.0000    0.0000 C   0  0
    0.0000    0.0000    0.0000 C   0  0
    0.0000    0.0000    0.0000 C   0  0
    0.0000    0.0000    0.0000 C   0  0
    0.0000    0.0000    0.0000 C   0  0
    0.0000    0.0000    0.0000 C   0  0
    0.0000    0.0000    0.0000 C   0  0
    0.0000    0.0000    0.0000 C   0  0
    0.0000    0.0000    0.0000 C   0  0
    0.0000    0.0000    0.0000 C   0  0
    0.0000    0.0000    0.0000 C   0  0
    0.0000    0.0000    0.0000 C   0  0
    0.0000    0.0000    0.0000 C   0  0
    0.0000    0.0000    0.0000 C   0  0
    0.0000    0.0000    0.0000 C   0  0
    0.0000    0.0000    0.0000 C   0  0
    0.0000    0.0000    0.0000 C   0  0
    0.0000    0.0000    0.0000 C   0  0
    0.0000    0.0000    0.0000 N   0  0
  1  6  1  0
  1  2  2  3
  2  3  1  0
  3  4  2  3
  4 10  1  0
  4  5  1  0
  5  6  2  3
  5  7  1  0
  7  8  2  3
  7 19  1  0
  8  9  1  0
  9 14  1  0
  9 10  2  3
 10 11  1  0
 11 12  2  3
 12 13  1  0
 13 18  1  0
 13 14  2  3
 14 15  1  0
 15 16  2  3
 16 17  1  0
 17 18  2  3
M  END
> <Name>
6-Aminochrysene

> <CAS>
002642-98-0

> <VED1>
4.303

> <nHAcc>
1

> <MAXDP>
2.213

> <CIC0>
3.849

> <Log Koc Exp>
5.21

> <Log Koc Pred>
4.56

> <Hat>
0.049

> <Hat Cutoff>
0.161

> <ID Model>
453

> <Smiles>
c1ccc2c(c1)c(cc1c2ccc2c1cccc2)N

$$$$
4,5,6-Trichloroguaiacol
  SciTegic03251110552D

 12 12  0  0  0  0            999 V2000
    0.0000    0.0000    0.0000 O   0  0
    0.0000    0.0000    0.0000 C   0  0
    0.0000    0.0000    0.0000 C   0  0
    0.0000    0.0000    0.0000 Cl  0  0
    0.0000    0.0000    0.0000 C   0  0
    0.0000    0.0000    0.0000 C   0  0
    0.0000    0.0000    0.0000 Cl  0  0
    0.0000    0.0000    0.0000 C   0  0
    0.0000    0.0000    0.0000 C   0  0
    0.0000    0.0000    0.0000 O   0  0
    0.0000    0.0000    0.0000 C   0  0
    0.0000    0.0000    0.0000 Cl  0  0
  1  2  1  0
  2  9  1  0
  2  3  2  3
  3  4  1  0
  3  5  1  0
  5  6  2  3
  5 12  1  0
  6  7  1  0
  6  8  1  0
  8  9  2  3
  9 10  1  0
 10 11  1  0
M  END
> <Name>
4,5,6-Trichloroguaiacol

> <CAS>
002668-24-8

> <VED1>
3.412

> <nHAcc>
2

> <MAXDP>
3.303

> <CIC0>
2.236

> <Log Koc Exp>
2.9

> <Log Koc Pred>
2.55

> <Hat>
0.032

> <Hat Cutoff>
0.161

> <ID Model>
454

> <Smiles>
Oc1c(Cl)c(c(Cl)cc1OC)Cl

$$$$
1,4-Dichloro-2,5-dimethoxybenzene
  SciTegic03251110552D

 12 12  0  0  0  0            999 V2000
    0.0000    0.0000    0.0000 C   0  0
    0.0000    0.0000    0.0000 C   0  0
    0.0000    0.0000    0.0000 C   0  0
    0.0000    0.0000    0.0000 C   0  0
    0.0000    0.0000    0.0000 C   0  0
    0.0000    0.0000    0.0000 C   0  0
    0.0000    0.0000    0.0000 Cl  0  0
    0.0000    0.0000    0.0000 O   0  0
    0.0000    0.0000    0.0000 C   0  0
    0.0000    0.0000    0.0000 Cl  0  0
    0.0000    0.0000    0.0000 O   0  0
    0.0000    0.0000    0.0000 C   0  0
  1  6  1  0
  1  2  2  3
  1 11  1  0
  2  3  1  0
  2 10  1  0
  3  4  2  3
  4  5  1  0
  4  8  1  0
  5  6  2  3
  5  7  1  0
  8  9  1  0
 11 12  1  0
M  END
> <Name>
1,4-Dichloro-2,5-dimethoxybenzene

> <CAS>
002675-77-6

> <VED1>
3.404

> <nHAcc>
2

> <MAXDP>
1.706

> <CIC0>
2.6

> <Log Koc Exp>
3.11

> <Log Koc Pred>
2.9

> <Hat>
0.024

> <Hat Cutoff>
0.161

> <ID Model>
455

> <Smiles>
c1(c(cc(c(c1)Cl)OC)Cl)OC

$$$$
Trimethacarb
  SciTegic03251110552D

 14 14  0  0  0  0            999 V2000
    0.0000    0.0000    0.0000 C   0  0
    0.0000    0.0000    0.0000 C   0  0
    0.0000    0.0000    0.0000 C   0  0
    0.0000    0.0000    0.0000 C   0  0
    0.0000    0.0000    0.0000 C   0  0
    0.0000    0.0000    0.0000 C   0  0
    0.0000    0.0000    0.0000 C   0  0
    0.0000    0.0000    0.0000 C   0  0
    0.0000    0.0000    0.0000 C   0  0
    0.0000    0.0000    0.0000 O   0  0
    0.0000    0.0000    0.0000 C   0  0
    0.0000    0.0000    0.0000 O   0  0
    0.0000    0.0000    0.0000 N   0  0
    0.0000    0.0000    0.0000 C   0  0
  1  6  1  0
  1  2  2  3
  1 10  1  0
  2  3  1  0
  3  4  2  3
  3  9  1  0
  4  5  1  0
  4  8  1  0
  5  6  2  3
  5  7  1  0
 10 11  1  0
 11 12  2  0
 11 13  1  0
 13 14  1  0
M  END
> <Name>
Trimethacarb

> <CAS>
002686-99-9

> <VED1>
3.684

> <nHAcc>
3

> <MAXDP>
3.955

> <CIC0>
3.402

> <Log Koc Exp>
2.6

> <Log Koc Pred>
2.2

> <Hat>
0.024

> <Hat Cutoff>
0.161

> <ID Model>
456

> <Smiles>
c1(cc(c(c(c1)C)C)C)OC(=O)NC

$$$$
Captafol
  SciTegic03251110552D

 20 21  0  0  0  0            999 V2000
    0.0000    0.0000    0.0000 C   0  0
    0.0000    0.0000    0.0000 O   0  0
    0.0000    0.0000    0.0000 C   0  0
    0.0000    0.0000    0.0000 H   0  0
    0.0000    0.0000    0.0000 C   0  0
    0.0000    0.0000    0.0000 H   0  0
    0.0000    0.0000    0.0000 C   0  0
    0.0000    0.0000    0.0000 O   0  0
    0.0000    0.0000    0.0000 N   0  0
    0.0000    0.0000    0.0000 S   0  0
    0.0000    0.0000    0.0000 C   0  0
    0.0000    0.0000    0.0000 C   0  0
    0.0000    0.0000    0.0000 Cl  0  0
    0.0000    0.0000    0.0000 Cl  0  0
    0.0000    0.0000    0.0000 Cl  0  0
    0.0000    0.0000    0.0000 Cl  0  0
    0.0000    0.0000    0.0000 C   0  0
    0.0000    0.0000    0.0000 C   0  0
    0.0000    0.0000    0.0000 C   0  0
    0.0000    0.0000    0.0000 C   0  0
  1  9  1  0
  1  2  2  0
  1  3  1  0
  3  4  1  0
  3 20  1  0
  3  5  1  0
  5  6  1  0
  5  7  1  0
  5 17  1  0
  7  8  2  0
  7  9  1  0
  9 10  1  0
 10 11  1  0
 11 12  1  0
 11 15  1  0
 11 16  1  0
 12 13  1  0
 12 14  1  0
 17 18  1  0
 18 19  2  3
 19 20  1  0
M  END
> <Name>
Captafol

> <CAS>
002939-80-2

> <VED1>
4.185

> <nHAcc>
3

> <MAXDP>
5.097

> <CIC0>
2.657

> <Log Koc Exp>
3.32

> <Log Koc Pred>
3.14

> <Hat>
0.073

> <Hat Cutoff>
0.161

> <ID Model>
458

> <Smiles>
C1(=O)[C@@H]2[C@@H](C(=O)N1SC(C(Cl)Cl)(Cl)Cl)CC=CC2

$$$$
Clopidol
  SciTegic03251110552D

 11 11  0  0  0  0            999 V2000
    0.0000    0.0000    0.0000 C   0  0
    0.0000    0.0000    0.0000 C   0  0
    0.0000    0.0000    0.0000 C   0  0
    0.0000    0.0000    0.0000 C   0  0
    0.0000    0.0000    0.0000 C   0  0
    0.0000    0.0000    0.0000 N   0  0
    0.0000    0.0000    0.0000 C   0  0
    0.0000    0.0000    0.0000 Cl  0  0
    0.0000    0.0000    0.0000 O   0  0
    0.0000    0.0000    0.0000 Cl  0  0
    0.0000    0.0000    0.0000 C   0  0
  1  6  1  0
  1  2  2  3
  1 11  1  0
  2  3  1  0
  2 10  1  0
  3  4  2  3
  3  9  1  0
  4  5  1  0
  4  8  1  0
  5  6  2  3
  5  7  1  0
M  END
> <Name>
Clopidol

> <CAS>
002971-90-6

> <VED1>
3.274

> <nHAcc>
2

> <MAXDP>
3.264

> <CIC0>
2.295

> <Log Koc Exp>
2.76

> <Log Koc Pred>
2.25

> <Hat>
0.025

> <Hat Cutoff>
0.161

> <ID Model>
459

> <Smiles>
c1(c(c(c(c(n1)C)Cl)O)Cl)C

$$$$
3-Bromophenylurea
  SciTegic03251110552D

 11 11  0  0  0  0            999 V2000
    0.0000    0.0000    0.0000 C   0  0
    0.0000    0.0000    0.0000 C   0  0
    0.0000    0.0000    0.0000 C   0  0
    0.0000    0.0000    0.0000 C   0  0
    0.0000    0.0000    0.0000 C   0  0
    0.0000    0.0000    0.0000 C   0  0
    0.0000    0.0000    0.0000 N   0  0
    0.0000    0.0000    0.0000 C   0  0
    0.0000    0.0000    0.0000 O   0  0
    0.0000    0.0000    0.0000 N   0  0
    0.0000    0.0000    0.0000 Br  0  0
  1  6  1  0
  1  2  2  3
  2  3  1  0
  2 11  1  0
  3  4  2  3
  4  5  1  0
  4  7  1  0
  5  6  2  3
  7  8  1  0
  8  9  2  0
  8 10  1  0
M  END
> <Name>
3-Bromophenylurea

> <CAS>
002989-98-2

> <VED1>
3.272

> <nHAcc>
3

> <MAXDP>
3.376

> <CIC0>
2.295

> <Log Koc Exp>
2.09

> <Log Koc Pred>
1.87

> <Hat>
0.022

> <Hat Cutoff>
0.161

> <ID Model>
460

> <Smiles>
c1c(cc(cc1)NC(=O)N)Br

$$$$
Metobromuron
  SciTegic03251110552D

 14 14  0  0  0  0            999 V2000
    0.0000    0.0000    0.0000 C   0  0
    0.0000    0.0000    0.0000 C   0  0
    0.0000    0.0000    0.0000 C   0  0
    0.0000    0.0000    0.0000 C   0  0
    0.0000    0.0000    0.0000 C   0  0
    0.0000    0.0000    0.0000 C   0  0
    0.0000    0.0000    0.0000 N   0  0
    0.0000    0.0000    0.0000 C   0  0
    0.0000    0.0000    0.0000 O   0  0
    0.0000    0.0000    0.0000 N   0  0
    0.0000    0.0000    0.0000 O   0  0
    0.0000    0.0000    0.0000 C   0  0
    0.0000    0.0000    0.0000 C   0  0
    0.0000    0.0000    0.0000 Br  0  0
  1  6  1  0
  1  2  2  3
  2  3  1  0
  2 14  1  0
  3  4  2  3
  4  5  1  0
  5  6  2  3
  5  7  1  0
  7  8  1  0
  8  9  2  0
  8 10  1  0
 10 11  1  0
 10 13  1  0
 11 12  1  0
M  END
> <Name>
Metobromuron

> <CAS>
003060-89-7

> <VED1>
3.685

> <nHAcc>
4

> <MAXDP>
4.307

> <CIC0>
2.823

> <Log Koc Exp>
2.1

> <Log Koc Pred>
1.94

> <Hat>
0.019

> <Hat Cutoff>
0.161

> <ID Model>
461

> <Smiles>
c1c(ccc(c1)NC(=O)N(OC)C)Br

$$$$
Fensulfothion sulfide
  SciTegic03251110552D

 17 17  0  0  0  0            999 V2000
    0.0000    0.0000    0.0000 C   0  0
    0.0000    0.0000    0.0000 C   0  0
    0.0000    0.0000    0.0000 C   0  0
    0.0000    0.0000    0.0000 C   0  0
    0.0000    0.0000    0.0000 C   0  0
    0.0000    0.0000    0.0000 C   0  0
    0.0000    0.0000    0.0000 O   0  0
    0.0000    0.0000    0.0000 P   0  0
    0.0000    0.0000    0.0000 S   0  0
    0.0000    0.0000    0.0000 O   0  0
    0.0000    0.0000    0.0000 C   0  0
    0.0000    0.0000    0.0000 C   0  0
    0.0000    0.0000    0.0000 O   0  0
    0.0000    0.0000    0.0000 C   0  0
    0.0000    0.0000    0.0000 C   0  0
    0.0000    0.0000    0.0000 S   0  0
    0.0000    0.0000    0.0000 C   0  0
  1  6  1  0
  1  2  2  3
  1 16  1  0
  2  3  1  0
  3  4  2  3
  4  5  1  0
  4  7  1  0
  5  6  2  3
  7  8  1  0
  8  9  2  0
  8 10  1  0
  8 13  1  0
 10 11  1  0
 11 12  1  0
 13 14  1  0
 14 15  1  0
 16 17  1  0
M  END
> <Name>
Fensulfothion sulfide

> <CAS>
003070-15-3

> <VED1>
4.048

> <nHAcc>
3

> <MAXDP>
2.155

> <CIC0>
3.362

> <Log Koc Exp>
3.18

> <Log Koc Pred>
3.87

> <Hat>
0.027

> <Hat Cutoff>
0.161

> <ID Model>
462

> <Smiles>
c1(ccc(cc1)OP(=S)(OCC)OCC)SC

$$$$
Tetrapropyl dithiopyrophosphate
  SciTegic03251110552D

 21 20  0  0  0  0            999 V2000
    0.0000    0.0000    0.0000 C   0  0
    0.0000    0.0000    0.0000 C   0  0
    0.0000    0.0000    0.0000 C   0  0
    0.0000    0.0000    0.0000 O   0  0
    0.0000    0.0000    0.0000 P   0  0
    0.0000    0.0000    0.0000 S   0  0
    0.0000    0.0000    0.0000 O   0  0
    0.0000    0.0000    0.0000 C   0  0
    0.0000    0.0000    0.0000 C   0  0
    0.0000    0.0000    0.0000 C   0  0
    0.0000    0.0000    0.0000 O   0  0
    0.0000    0.0000    0.0000 P   0  0
    0.0000    0.0000    0.0000 S   0  0
    0.0000    0.0000    0.0000 O   0  0
    0.0000    0.0000    0.0000 C   0  0
    0.0000    0.0000    0.0000 C   0  0
    0.0000    0.0000    0.0000 C   0  0
    0.0000    0.0000    0.0000 O   0  0
    0.0000    0.0000    0.0000 C   0  0
    0.0000    0.0000    0.0000 C   0  0
    0.0000    0.0000    0.0000 C   0  0
  1  2  1  0
  2  3  1  0
  3  4  1  0
  4  5  1  0
  5  6  2  0
  5  7  1  0
  5 11  1  0
  7  8  1  0
  8  9  1  0
  9 10  1  0
 11 12  1  0
 12 13  2  0
 12 14  1  0
 12 18  1  0
 14 15  1  0
 15 16  1  0
 16 17  1  0
 18 19  1  0
 19 20  1  0
 20 21  1  0
M  END
> <Name>
Tetrapropyl dithiopyrophosphate

> <CAS>
003244-90-4

> <VED1>
4.486

> <nHAcc>
5

> <MAXDP>
2.297

> <CIC0>
3.944

> <Log Koc Exp>
3.84

> <Log Koc Pred>
3.54

> <Hat>
0.079

> <Hat Cutoff>
0.161

> <ID Model>
463

> <Smiles>
CCCOP(=S)(OCCC)OP(=S)(OCCC)OCCC

$$$$
Asulam
  SciTegic03251110552D

 15 15  0  0  0  0            999 V2000
    0.0000    0.0000    0.0000 C   0  0
    0.0000    0.0000    0.0000 C   0  0
    0.0000    0.0000    0.0000 C   0  0
    0.0000    0.0000    0.0000 C   0  0
    0.0000    0.0000    0.0000 C   0  0
    0.0000    0.0000    0.0000 C   0  0
    0.0000    0.0000    0.0000 S   0  0
    0.0000    0.0000    0.0000 O   0  0
    0.0000    0.0000    0.0000 O   0  0
    0.0000    0.0000    0.0000 N   0  0
    0.0000    0.0000    0.0000 C   0  0
    0.0000    0.0000    0.0000 O   0  0
    0.0000    0.0000    0.0000 O   0  0
    0.0000    0.0000    0.0000 C   0  0
    0.0000    0.0000    0.0000 N   0  0
  1  6  1  0
  1  2  2  3
  2  3  1  0
  2 15  1  0
  3  4  2  3
  4  5  1  0
  5  6  2  3
  5  7  1  0
  7  8  2  0
  7  9  2  0
  7 10  1  0
 10 11  1  0
 11 12  2  0
 11 13  1  0
 13 14  1  0
M  END
> <Name>
Asulam

> <CAS>
003337-71-1

> <VED1>
3.809

> <nHAcc>
6

> <MAXDP>
4.46

> <CIC0>
2.689

> <Log Koc Exp>
2.04

> <Log Koc Pred>
1.52

> <Hat>
0.039

> <Hat Cutoff>
0.161

> <ID Model>
464

> <Smiles>
c1c(ccc(c1)S(=O)(=O)NC(=O)OC)N

$$$$
Temephos
  SciTegic03251110552D

 27 28  0  0  0  0            999 V2000
    0.0000    0.0000    0.0000 C   0  0
    0.0000    0.0000    0.0000 C   0  0
    0.0000    0.0000    0.0000 C   0  0
    0.0000    0.0000    0.0000 C   0  0
    0.0000    0.0000    0.0000 C   0  0
    0.0000    0.0000    0.0000 C   0  0
    0.0000    0.0000    0.0000 S   0  0
    0.0000    0.0000    0.0000 C   0  0
    0.0000    0.0000    0.0000 C   0  0
    0.0000    0.0000    0.0000 C   0  0
    0.0000    0.0000    0.0000 C   0  0
    0.0000    0.0000    0.0000 C   0  0
    0.0000    0.0000    0.0000 C   0  0
    0.0000    0.0000    0.0000 O   0  0
    0.0000    0.0000    0.0000 P   0  0
    0.0000    0.0000    0.0000 S   0  0
    0.0000    0.0000    0.0000 O   0  0
    0.0000    0.0000    0.0000 C   0  0
    0.0000    0.0000    0.0000 O   0  0
    0.0000    0.0000    0.0000 C   0  0
    0.0000    0.0000    0.0000 O   0  0
    0.0000    0.0000    0.0000 P   0  0
    0.0000    0.0000    0.0000 S   0  0
    0.0000    0.0000    0.0000 O   0  0
    0.0000    0.0000    0.0000 C   0  0
    0.0000    0.0000    0.0000 O   0  0
    0.0000    0.0000    0.0000 C   0  0
  1  6  1  0
  1  2  2  3
  2  3  1  0
  2 21  1  0
  3  4  2  3
  4  5  1  0
  5  6  2  3
  5  7  1  0
  7  8  1  0
  8 13  1  0
  8  9  2  3
  9 10  1  0
 10 11  2  3
 11 12  1  0
 11 14  1  0
 12 13  2  3
 14 15  1  0
 15 16  2  0
 15 17  1  0
 15 19  1  0
 17 18  1  0
 19 20  1  0
 21 22  1  0
 22 23  2  0
 22 24  1  0
 22 26  1  0
 24 25  1  0
 26 27  1  0
M  END
> <Name>
Temephos

> <CAS>
003383-96-8

> <VED1>
5.115

> <nHAcc>
6

> <MAXDP>
2.114

> <CIC0>
3.675

> <Log Koc Exp>
5

> <Log Koc Pred>
4.67

> <Hat>
0.138

> <Hat Cutoff>
0.161

> <ID Model>
465

> <Smiles>
c1c(ccc(c1)Sc1ccc(cc1)OP(=S)(OC)OC)OP(=S)(OC)OC

$$$$
Pipron
  SciTegic03251110552D

 22 23  0  0  0  0            999 V2000
    0.0000    0.0000    0.0000 C   0  0
    0.0000    0.0000    0.0000 C   0  0
    0.0000    0.0000    0.0000 C   0  0
    0.0000    0.0000    0.0000 N   0  0
    0.0000    0.0000    0.0000 C   0  0
    0.0000    0.0000    0.0000 C   0  0
    0.0000    0.0000    0.0000 C   0  0
    0.0000    0.0000    0.0000 C   0  0
    0.0000    0.0000    0.0000 C   0  0
    0.0000    0.0000    0.0000 H   0  0
    0.0000    0.0000    0.0000 C   0  0
    0.0000    0.0000    0.0000 O   0  0
    0.0000    0.0000    0.0000 C   0  0
    0.0000    0.0000    0.0000 O   0  0
    0.0000    0.0000    0.0000 C   0  0
    0.0000    0.0000    0.0000 C   0  0
    0.0000    0.0000    0.0000 C   0  0
    0.0000    0.0000    0.0000 C   0  0
    0.0000    0.0000    0.0000 C   0  0
    0.0000    0.0000    0.0000 C   0  0
    0.0000    0.0000    0.0000 Cl  0  0
    0.0000    0.0000    0.0000 Cl  0  0
  1  2  1  0
  1 12  1  0
  2  3  1  0
  3  4  1  0
  4  9  1  0
  4  5  1  0
  5  6  1  0
  6  7  1  0
  7  8  1  0
  8  9  1  0
  9 10  1  0
  9 11  1  0
 12 13  1  0
 13 14  2  0
 13 15  1  0
 15 20  1  0
 15 16  2  3
 16 17  1  0
 17 18  2  3
 17 22  1  0
 18 19  1  0
 18 21  1  0
 19 20  2  3
M  END
> <Name>
Pipron

> <CAS>
003478-94-2

> <VED1>
4.527

> <nHAcc>
3

> <MAXDP>
4.886

> <CIC0>
3.815

> <Log Koc Exp>
3.7

> <Log Koc Pred>
3.54

> <Hat>
0.045

> <Hat Cutoff>
0.161

> <ID Model>
466

> <Smiles>
C(CCN1CCCC[C@H]1C)OC(=O)c1cc(c(cc1)Cl)Cl

$$$$
3-(3,4-Dichlorophenyl)-1-methylurea
  SciTegic03251110552D

 13 13  0  0  0  0            999 V2000
    0.0000    0.0000    0.0000 C   0  0
    0.0000    0.0000    0.0000 C   0  0
    0.0000    0.0000    0.0000 C   0  0
    0.0000    0.0000    0.0000 C   0  0
    0.0000    0.0000    0.0000 C   0  0
    0.0000    0.0000    0.0000 C   0  0
    0.0000    0.0000    0.0000 Cl  0  0
    0.0000    0.0000    0.0000 Cl  0  0
    0.0000    0.0000    0.0000 N   0  0
    0.0000    0.0000    0.0000 C   0  0
    0.0000    0.0000    0.0000 O   0  0
    0.0000    0.0000    0.0000 N   0  0
    0.0000    0.0000    0.0000 C   0  0
  1  6  1  0
  1  2  2  3
  2  3  1  0
  2  9  1  0
  3  4  2  3
  4  5  1  0
  4  8  1  0
  5  6  2  3
  5  7  1  0
  9 10  1  0
 10 11  2  0
 10 12  1  0
 12 13  1  0
M  END
> <Name>
3-(3,4-Dichlorophenyl)-1-methylurea

> <CAS>
003567-62-2

> <VED1>
3.55

> <nHAcc>
3

> <MAXDP>
3.879

> <CIC0>
2.476

> <Log Koc Exp>
2.46

> <Log Koc Pred>
2.24

> <Hat>
0.023

> <Hat Cutoff>
0.161

> <ID Model>
468

> <Smiles>
c1c(cc(c(c1)Cl)Cl)NC(=O)NC

$$$$
4-Biphenylmethanol
  SciTegic03251110552D

 14 15  0  0  0  0            999 V2000
    0.0000    0.0000    0.0000 C   0  0
    0.0000    0.0000    0.0000 C   0  0
    0.0000    0.0000    0.0000 C   0  0
    0.0000    0.0000    0.0000 C   0  0
    0.0000    0.0000    0.0000 C   0  0
    0.0000    0.0000    0.0000 C   0  0
    0.0000    0.0000    0.0000 C   0  0
    0.0000    0.0000    0.0000 C   0  0
    0.0000    0.0000    0.0000 C   0  0
    0.0000    0.0000    0.0000 C   0  0
    0.0000    0.0000    0.0000 C   0  0
    0.0000    0.0000    0.0000 C   0  0
    0.0000    0.0000    0.0000 C   0  0
    0.0000    0.0000    0.0000 O   0  0
  1  6  1  0
  1  2  2  3
  2  3  1  0
  3  4  2  3
  4  5  1  0
  5  6  2  3
  5  7  1  0
  7 12  1  0
  7  8  2  3
  8  9  1  0
  9 10  2  3
 10 11  1  0
 10 13  1  0
 11 12  2  3
 13 14  1  0
M  END
> <Name>
4-Biphenylmethanol

> <CAS>
003597-91-9

> <VED1>
3.683

> <nHAcc>
1

> <MAXDP>
2.899

> <CIC0>
3.505

> <Log Koc Exp>
2.59

> <Log Koc Pred>
3.16

> <Hat>
0.029

> <Hat Cutoff>
0.161

> <ID Model>
469

> <Smiles>
c1cccc(c1)c1ccc(cc1)CO

$$$$
TEDP
  SciTegic03251110552D

 17 16  0  0  0  0            999 V2000
    0.0000    0.0000    0.0000 C   0  0
    0.0000    0.0000    0.0000 C   0  0
    0.0000    0.0000    0.0000 O   0  0
    0.0000    0.0000    0.0000 P   0  0
    0.0000    0.0000    0.0000 S   0  0
    0.0000    0.0000    0.0000 O   0  0
    0.0000    0.0000    0.0000 P   0  0
    0.0000    0.0000    0.0000 S   0  0
    0.0000    0.0000    0.0000 O   0  0
    0.0000    0.0000    0.0000 C   0  0
    0.0000    0.0000    0.0000 C   0  0
    0.0000    0.0000    0.0000 O   0  0
    0.0000    0.0000    0.0000 C   0  0
    0.0000    0.0000    0.0000 C   0  0
    0.0000    0.0000    0.0000 O   0  0
    0.0000    0.0000    0.0000 C   0  0
    0.0000    0.0000    0.0000 C   0  0
  1  2  1  0
  2  3  1  0
  3  4  1  0
  4  5  2  0
  4  6  1  0
  4 15  1  0
  6  7  1  0
  7  8  2  0
  7  9  1  0
  7 12  1  0
  9 10  1  0
 10 11  1  0
 12 13  1  0
 13 14  1  0
 15 16  1  0
 16 17  1  0
M  END
> <Name>
TEDP

> <CAS>
003689-24-5

> <VED1>
4.044

> <nHAcc>
5

> <MAXDP>
2.05

> <CIC0>
3.407

> <Log Koc Exp>
2.66

> <Log Koc Pred>
2.86

> <Hat>
0.072

> <Hat Cutoff>
0.161

> <ID Model>
470

> <Smiles>
CCOP(=S)(OP(=S)(OCC)OCC)OCC

$$$$
Fenobucarb
  SciTegic03251110552D

 16 16  0  0  0  0            999 V2000
    0.0000    0.0000    0.0000 N   0  0
    0.0000    0.0000    0.0000 C   0  0
    0.0000    0.0000    0.0000 O   0  0
    0.0000    0.0000    0.0000 O   0  0
    0.0000    0.0000    0.0000 C   0  0
    0.0000    0.0000    0.0000 C   0  0
    0.0000    0.0000    0.0000 C   0  0
    0.0000    0.0000    0.0000 C   0  0
    0.0000    0.0000    0.0000 C   0  0
    0.0000    0.0000    0.0000 C   0  0
    0.0000    0.0000    0.0000 C   0  0
    0.0000    0.0000    0.0000 H   0  0
    0.0000    0.0000    0.0000 C   0  0
    0.0000    0.0000    0.0000 C   0  0
    0.0000    0.0000    0.0000 C   0  0
    0.0000    0.0000    0.0000 C   0  0
  1  2  1  0
  1 16  1  0
  2  3  2  0
  2  4  1  0
  4  5  1  0
  5 10  1  0
  5  6  2  3
  6  7  1  0
  7  8  2  3
  8  9  1  0
  9 10  2  3
 10 11  1  0
 11 12  1  0
 11 13  1  0
 11 15  1  0
 13 14  1  0
M  END
> <Name>
Fenobucarb

> <CAS>
003766-81-2

> <VED1>
3.809

> <nHAcc>
3

> <MAXDP>
4.111

> <CIC0>
3.578

> <Log Koc Exp>
1.71

> <Log Koc Pred>
2.35

> <Hat>
0.028

> <Hat Cutoff>
0.161

> <ID Model>
471

> <Smiles>
N(C(=O)Oc1ccccc1[C@@H](CC)C)C

$$$$
Metizolin
  SciTegic03251110552D

 15 16  0  0  0  0            999 V2000
    0.0000    0.0000    0.0000 C   0  0
    0.0000    0.0000    0.0000 O   0  0
    0.0000    0.0000    0.0000 C   0  0
    0.0000    0.0000    0.0000 N   0  0
    0.0000    0.0000    0.0000 C   0  0
    0.0000    0.0000    0.0000 O   0  0
    0.0000    0.0000    0.0000 S   0  0
    0.0000    0.0000    0.0000 C   0  0
    0.0000    0.0000    0.0000 C   0  0
    0.0000    0.0000    0.0000 C   0  0
    0.0000    0.0000    0.0000 C   0  0
    0.0000    0.0000    0.0000 C   0  0
    0.0000    0.0000    0.0000 C   0  0
    0.0000    0.0000    0.0000 Cl  0  0
    0.0000    0.0000    0.0000 O   0  0
  1  2  2  0
  1  3  1  0
  1 15  1  0
  3  4  1  0
  4  9  1  0
  4  5  1  0
  5  6  2  0
  5  7  1  0
  7  8  1  0
  8 13  1  0
  8  9  2  3
  9 10  1  0
 10 11  2  3
 10 14  1  0
 11 12  1  0
 12 13  2  3
M  END
> <Name>
Metizolin

> <CAS>
003813-05-6

> <VED1>
3.814

> <nHAcc>
4

> <MAXDP>
4.486

> <CIC0>
2.324

> <Log Koc Exp>
1.52

> <Log Koc Pred>
2.32

> <Hat>
0.042

> <Hat Cutoff>
0.161

> <ID Model>
472

> <Smiles>
C(=O)(Cn1c(=O)sc2c1c(ccc2)Cl)O

$$$$
Methyl-N-(3-chlorophenyl)carbamate
  SciTegic03251110552D

 12 12  0  0  0  0            999 V2000
    0.0000    0.0000    0.0000 C   0  0
    0.0000    0.0000    0.0000 C   0  0
    0.0000    0.0000    0.0000 C   0  0
    0.0000    0.0000    0.0000 C   0  0
    0.0000    0.0000    0.0000 C   0  0
    0.0000    0.0000    0.0000 C   0  0
    0.0000    0.0000    0.0000 O   0  0
    0.0000    0.0000    0.0000 C   0  0
    0.0000    0.0000    0.0000 O   0  0
    0.0000    0.0000    0.0000 N   0  0
    0.0000    0.0000    0.0000 C   0  0
    0.0000    0.0000    0.0000 Cl  0  0
  1  6  1  0
  1  2  2  3
  2  3  1  0
  2 12  1  0
  3  4  2  3
  4  5  1  0
  4  7  1  0
  5  6  2  3
  7  8  1  0
  8  9  2  0
  8 10  1  0
 10 11  1  0
M  END
> <Name>
Methyl-N-(3-chlorophenyl)carbamate

> <CAS>
004090-00-0

> <VED1>
3.415

> <nHAcc>
3

> <MAXDP>
3.716

> <CIC0>
2.5

> <Log Koc Exp>
2.15

> <Log Koc Pred>
2

> <Hat>
0.019

> <Hat Cutoff>
0.161

> <ID Model>
473

> <Smiles>
c1c(cc(cc1)OC(=O)NC)Cl

$$$$
Dipropetryn
  SciTegic03251110552D

 17 17  0  0  0  0            999 V2000
    0.0000    0.0000    0.0000 N   0  0
    0.0000    0.0000    0.0000 C   0  0
    0.0000    0.0000    0.0000 N   0  0
    0.0000    0.0000    0.0000 C   0  0
    0.0000    0.0000    0.0000 N   0  0
    0.0000    0.0000    0.0000 C   0  0
    0.0000    0.0000    0.0000 S   0  0
    0.0000    0.0000    0.0000 C   0  0
    0.0000    0.0000    0.0000 C   0  0
    0.0000    0.0000    0.0000 N   0  0
    0.0000    0.0000    0.0000 C   0  0
    0.0000    0.0000    0.0000 C   0  0
    0.0000    0.0000    0.0000 C   0  0
    0.0000    0.0000    0.0000 N   0  0
    0.0000    0.0000    0.0000 C   0  0
    0.0000    0.0000    0.0000 C   0  0
    0.0000    0.0000    0.0000 C   0  0
  1  6  1  0
  1  2  2  3
  2  3  1  0
  2 14  1  0
  3  4  2  3
  4  5  1  0
  4 10  1  0
  5  6  2  3
  6  7  1  0
  7  8  1  0
  8  9  1  0
 10 11  1  0
 11 12  1  0
 11 13  1  0
 14 15  1  0
 15 16  1  0
 15 17  1  0
M  END
> <Name>
Dipropetryn

> <CAS>
004147-51-7

> <VED1>
4.046

> <nHAcc>
5

> <MAXDP>
1.36

> <CIC0>
3.734

> <Log Koc Exp>
3.07

> <Log Koc Pred>
2.97

> <Hat>
0.122

> <Hat Cutoff>
0.161

> <ID Model>
474

> <Smiles>
n1c(nc(nc1SCC)NC(C)C)NC(C)C

$$$$
6-Chloropicolinic acid
  SciTegic03251110552D

 10 10  0  0  0  0            999 V2000
    0.0000    0.0000    0.0000 N   0  0
    0.0000    0.0000    0.0000 C   0  0
    0.0000    0.0000    0.0000 C   0  0
    0.0000    0.0000    0.0000 C   0  0
    0.0000    0.0000    0.0000 C   0  0
    0.0000    0.0000    0.0000 C   0  0
    0.0000    0.0000    0.0000 Cl  0  0
    0.0000    0.0000    0.0000 C   0  0
    0.0000    0.0000    0.0000 O   0  0
    0.0000    0.0000    0.0000 O   0  0
  1  6  1  0
  1  2  2  3
  2  3  1  0
  2  8  1  0
  3  4  2  3
  4  5  1  0
  5  6  2  3
  6  7  1  0
  8  9  2  0
  8 10  1  0
M  END
> <Name>
6-Chloropicolinic acid

> <CAS>
004684-94-0

> <VED1>
3.123

> <nHAcc>
3

> <MAXDP>
3.232

> <CIC0>
1.822

> <Log Koc Exp>
1.16

> <Log Koc Pred>
1.76

> <Hat>
0.041

> <Hat Cutoff>
0.161

> <ID Model>
475

> <Smiles>
n1c(cccc1Cl)C(=O)O

$$$$
Nitralin
  SciTegic03251110552D

 23 23  0  0  0  0            999 V2000
    0.0000    0.0000    0.0000 C   0  0
    0.0000    0.0000    0.0000 C   0  0
    0.0000    0.0000    0.0000 C   0  0
    0.0000    0.0000    0.0000 C   0  0
    0.0000    0.0000    0.0000 C   0  0
    0.0000    0.0000    0.0000 C   0  0
    0.0000    0.0000    0.0000 N   0  0
    0.0000    0.0000    0.0000 O   0  0
    0.0000    0.0000    0.0000 O   0  0
    0.0000    0.0000    0.0000 N   0  0
    0.0000    0.0000    0.0000 C   0  0
    0.0000    0.0000    0.0000 C   0  0
    0.0000    0.0000    0.0000 C   0  0
    0.0000    0.0000    0.0000 C   0  0
    0.0000    0.0000    0.0000 C   0  0
    0.0000    0.0000    0.0000 C   0  0
    0.0000    0.0000    0.0000 N   0  0
    0.0000    0.0000    0.0000 O   0  0
    0.0000    0.0000    0.0000 O   0  0
    0.0000    0.0000    0.0000 S   0  0
    0.0000    0.0000    0.0000 O   0  0
    0.0000    0.0000    0.0000 O   0  0
    0.0000    0.0000    0.0000 C   0  0
  1  6  1  0
  1  2  2  3
  2  3  1  0
  2 20  1  0
  3  4  2  3
  4  5  1  0
  4 17  1  0
  5  6  2  3
  5 10  1  0
  6  7  1  0
  7  8  1  0
  7  9  1  0
 10 11  1  0
 10 14  1  0
 11 12  1  0
 12 13  1  0
 14 15  1  0
 15 16  1  0
 17 18  1  0
 17 19  1  0
 20 21  2  0
 20 22  2  0
 20 23  1  0
M  END
> <Name>
Nitralin

> <CAS>
004726-14-1

> <VED1>
4.711

> <nHAcc>
7

> <MAXDP>
4.656

> <CIC0>
3.55

> <Log Koc Exp>
2.92

> <Log Koc Pred>
2.74

> <Hat>
0.051

> <Hat Cutoff>
0.161

> <ID Model>
476

> <Smiles>
c1c(cc(c(c1N(O)O)N(CCC)CCC)N(O)O)S(=O)(=O)C

$$$$
1-Naphthalenemethanol
  SciTegic03251110552D

 12 13  0  0  0  0            999 V2000
    0.0000    0.0000    0.0000 C   0  0
    0.0000    0.0000    0.0000 C   0  0
    0.0000    0.0000    0.0000 C   0  0
    0.0000    0.0000    0.0000 C   0  0
    0.0000    0.0000    0.0000 C   0  0
    0.0000    0.0000    0.0000 C   0  0
    0.0000    0.0000    0.0000 C   0  0
    0.0000    0.0000    0.0000 C   0  0
    0.0000    0.0000    0.0000 C   0  0
    0.0000    0.0000    0.0000 C   0  0
    0.0000    0.0000    0.0000 C   0  0
    0.0000    0.0000    0.0000 O   0  0
  1  6  1  0
  1  2  2  3
  2  3  1  0
  3 10  1  0
  3  4  2  3
  4  5  1  0
  4  7  1  0
  5  6  2  3
  7  8  2  3
  8  9  1  0
  9 10  2  3
 10 11  1  0
 11 12  1  0
M  END
> <Name>
1-Naphthalenemethanol

> <CAS>
004780-79-4

> <VED1>
3.422

> <nHAcc>
1

> <MAXDP>
3.036

> <CIC0>
3.24

> <Log Koc Exp>
2.25

> <Log Koc Pred>
2.66

> <Hat>
0.027

> <Hat Cutoff>
0.161

> <ID Model>
477

> <Smiles>
c1cc2c(cc1)cccc2CO

$$$$
Carboxin
  SciTegic03251110552D

 16 17  0  0  0  0            999 V2000
    0.0000    0.0000    0.0000 C   0  0
    0.0000    0.0000    0.0000 C   0  0
    0.0000    0.0000    0.0000 C   0  0
    0.0000    0.0000    0.0000 C   0  0
    0.0000    0.0000    0.0000 C   0  0
    0.0000    0.0000    0.0000 C   0  0
    0.0000    0.0000    0.0000 N   0  0
    0.0000    0.0000    0.0000 C   0  0
    0.0000    0.0000    0.0000 O   0  0
    0.0000    0.0000    0.0000 C   0  0
    0.0000    0.0000    0.0000 C   0  0
    0.0000    0.0000    0.0000 O   0  0
    0.0000    0.0000    0.0000 C   0  0
    0.0000    0.0000    0.0000 C   0  0
    0.0000    0.0000    0.0000 S   0  0
    0.0000    0.0000    0.0000 C   0  0
  1  6  1  0
  1  2  2  3
  2  3  1  0
  3  4  2  3
  4  5  1  0
  4  7  1  0
  5  6  2  3
  7  8  1  0
  8  9  2  0
  8 10  1  0
 10 15  1  0
 10 11  2  3
 11 12  1  0
 11 16  1  0
 12 13  1  0
 13 14  1  0
 14 15  1  0
M  END
> <Name>
Carboxin

> <CAS>
005234-68-4

> <VED1>
3.95

> <nHAcc>
3

> <MAXDP>
4.908

> <CIC0>
3.211

> <Log Koc Exp>
2.41

> <Log Koc Pred>
2.52

> <Hat>
0.035

> <Hat Cutoff>
0.161

> <ID Model>
478

> <Smiles>
c1ccc(cc1)NC(=O)C1=C(OCCS1)C

$$$$
Oxycarboxin
  SciTegic03251110552D

 18 19  0  0  0  0            999 V2000
    0.0000    0.0000    0.0000 O   0  0
    0.0000    0.0000    0.0000 S   0  0
    0.0000    0.0000    0.0000 O   0  0
    0.0000    0.0000    0.0000 C   0  0
    0.0000    0.0000    0.0000 C   0  0
    0.0000    0.0000    0.0000 C   0  0
    0.0000    0.0000    0.0000 O   0  0
    0.0000    0.0000    0.0000 C   0  0
    0.0000    0.0000    0.0000 C   0  0
    0.0000    0.0000    0.0000 C   0  0
    0.0000    0.0000    0.0000 O   0  0
    0.0000    0.0000    0.0000 N   0  0
    0.0000    0.0000    0.0000 C   0  0
    0.0000    0.0000    0.0000 C   0  0
    0.0000    0.0000    0.0000 C   0  0
    0.0000    0.0000    0.0000 C   0  0
    0.0000    0.0000    0.0000 C   0  0
    0.0000    0.0000    0.0000 C   0  0
  1  2  2  0
  2  9  1  0
  2  3  2  0
  2  4  1  0
  4  5  2  3
  4 10  1  0
  5  6  1  0
  5  7  1  0
  7  8  1  0
  8  9  1  0
 10 11  2  0
 10 12  1  0
 12 13  1  0
 13 18  1  0
 13 14  2  3
 14 15  1  0
 15 16  2  3
 16 17  1  0
 17 18  2  3
M  END
> <Name>
Oxycarboxin

> <CAS>
005259-88-1

> <VED1>
4.189

> <nHAcc>
5

> <MAXDP>
4.965

> <CIC0>
3.198

> <Log Koc Exp>
1.7

> <Log Koc Pred>
2.34

> <Hat>
0.025

> <Hat Cutoff>
0.161

> <ID Model>
479

> <Smiles>
O=S1(=O)C(=C(C)OCC1)C(=O)Nc1ccccc1

$$$$
3-Chloro-4-methoxyaniline
  SciTegic03251110552D

 10 10  0  0  0  0            999 V2000
    0.0000    0.0000    0.0000 C   0  0
    0.0000    0.0000    0.0000 C   0  0
    0.0000    0.0000    0.0000 C   0  0
    0.0000    0.0000    0.0000 C   0  0
    0.0000    0.0000    0.0000 C   0  0
    0.0000    0.0000    0.0000 C   0  0
    0.0000    0.0000    0.0000 O   0  0
    0.0000    0.0000    0.0000 C   0  0
    0.0000    0.0000    0.0000 Cl  0  0
    0.0000    0.0000    0.0000 N   0  0
  1  6  1  0
  1  2  2  3
  1 10  1  0
  2  3  1  0
  3  4  2  3
  3  9  1  0
  4  5  1  0
  4  7  1  0
  5  6  2  3
  7  8  1  0
M  END
> <Name>
3-Chloro-4-methoxyaniline

> <CAS>
005345-54-0

> <VED1>
3.115

> <nHAcc>
2

> <MAXDP>
1.614

> <CIC0>
2.425

> <Log Koc Exp>
1.93

> <Log Koc Pred>
2.38

> <Hat>
0.026

> <Hat Cutoff>
0.161

> <ID Model>
480

> <Smiles>
c1(cc(c(cc1)OC)Cl)N

$$$$
Propyl-N-phenylcarbamate
  SciTegic03251110552D

 13 13  0  0  0  0            999 V2000
    0.0000    0.0000    0.0000 C   0  0
    0.0000    0.0000    0.0000 C   0  0
    0.0000    0.0000    0.0000 C   0  0
    0.0000    0.0000    0.0000 C   0  0
    0.0000    0.0000    0.0000 C   0  0
    0.0000    0.0000    0.0000 C   0  0
    0.0000    0.0000    0.0000 N   0  0
    0.0000    0.0000    0.0000 C   0  0
    0.0000    0.0000    0.0000 O   0  0
    0.0000    0.0000    0.0000 O   0  0
    0.0000    0.0000    0.0000 C   0  0
    0.0000    0.0000    0.0000 C   0  0
    0.0000    0.0000    0.0000 C   0  0
  1  6  1  0
  1  2  2  3
  2  3  1  0
  3  4  2  3
  4  5  1  0
  4  7  1  0
  5  6  2  3
  7  8  1  0
  8  9  2  0
  8 10  1  0
 10 11  1  0
 11 12  1  0
 12 13  1  0
M  END
> <Name>
Propyl-N-phenylcarbamate

> <CAS>
005532-90-1

> <VED1>
3.549

> <nHAcc>
3

> <MAXDP>
4.038

> <CIC0>
3.205

> <Log Koc Exp>
2.06

> <Log Koc Pred>
1.95

> <Hat>
0.024

> <Hat Cutoff>
0.161

> <ID Model>
481

> <Smiles>
c1ccc(cc1)NC(=O)OCCC

$$$$
Chlorpyrifos methyl
  SciTegic03251110552D

 16 16  0  0  0  0            999 V2000
    0.0000    0.0000    0.0000 Cl  0  0
    0.0000    0.0000    0.0000 C   0  0
    0.0000    0.0000    0.0000 C   0  0
    0.0000    0.0000    0.0000 Cl  0  0
    0.0000    0.0000    0.0000 N   0  0
    0.0000    0.0000    0.0000 C   0  0
    0.0000    0.0000    0.0000 C   0  0
    0.0000    0.0000    0.0000 C   0  0
    0.0000    0.0000    0.0000 Cl  0  0
    0.0000    0.0000    0.0000 O   0  0
    0.0000    0.0000    0.0000 P   0  0
    0.0000    0.0000    0.0000 S   0  0
    0.0000    0.0000    0.0000 O   0  0
    0.0000    0.0000    0.0000 C   0  0
    0.0000    0.0000    0.0000 O   0  0
    0.0000    0.0000    0.0000 C   0  0
  1  2  1  0
  2  8  1  0
  2  3  2  3
  3  4  1  0
  3  5  1  0
  5  6  2  3
  6  7  1  0
  6 10  1  0
  7  8  2  3
  7  9  1  0
 10 11  1  0
 11 12  2  0
 11 13  1  0
 11 15  1  0
 13 14  1  0
 15 16  1  0
M  END
> <Name>
Chlorpyrifos methyl

> <CAS>
005598-13-0

> <VED1>
3.941

> <nHAcc>
4

> <MAXDP>
1.762

> <CIC0>
2.122

> <Log Koc Exp>
3.52

> <Log Koc Pred>
3.5

> <Hat>
0.093

> <Hat Cutoff>
0.161

> <ID Model>
482

> <Smiles>
Clc1c(Cl)nc(c(c1)Cl)OP(=S)(OC)OC

$$$$
Terbacil
  SciTegic03251110552D

 15 15  0  0  0  0            999 V2000
    0.0000    0.0000    0.0000 C   0  0
    0.0000    0.0000    0.0000 N   0  0
    0.0000    0.0000    0.0000 H   0  0
    0.0000    0.0000    0.0000 C   0  0
    0.0000    0.0000    0.0000 O   0  0
    0.0000    0.0000    0.0000 N   0  0
    0.0000    0.0000    0.0000 C   0  0
    0.0000    0.0000    0.0000 O   0  0
    0.0000    0.0000    0.0000 C   0  0
    0.0000    0.0000    0.0000 Cl  0  0
    0.0000    0.0000    0.0000 C   0  0
    0.0000    0.0000    0.0000 C   0  0
    0.0000    0.0000    0.0000 C   0  0
    0.0000    0.0000    0.0000 C   0  0
    0.0000    0.0000    0.0000 C   0  0
  1  9  2  3
  1  2  1  0
  1 15  1  0
  2  3  1  0
  2  4  1  0
  4  5  2  0
  4  6  1  0
  6  7  1  0
  6 11  1  0
  7  8  2  0
  7  9  1  0
  9 10  1  0
 11 12  1  0
 11 13  1  0
 11 14  1  0
M  END
> <Name>
Terbacil

> <CAS>
005902-51-2

> <VED1>
3.691

> <nHAcc>
4

> <MAXDP>
4.668

> <CIC0>
2.986

> <Log Koc Exp>
1.69

> <Log Koc Pred>
1.79

> <Hat>
0.025

> <Hat Cutoff>
0.161

> <ID Model>
483

> <Smiles>
c1([nH]c(=O)n(c(=O)c1Cl)C(C)(C)C)C

$$$$
Terbuthylazine
  SciTegic03251110552D

 15 15  0  0  0  0            999 V2000
    0.0000    0.0000    0.0000 N   0  0
    0.0000    0.0000    0.0000 C   0  0
    0.0000    0.0000    0.0000 N   0  0
    0.0000    0.0000    0.0000 C   0  0
    0.0000    0.0000    0.0000 N   0  0
    0.0000    0.0000    0.0000 C   0  0
    0.0000    0.0000    0.0000 Cl  0  0
    0.0000    0.0000    0.0000 N   0  0
    0.0000    0.0000    0.0000 C   0  0
    0.0000    0.0000    0.0000 C   0  0
    0.0000    0.0000    0.0000 N   0  0
    0.0000    0.0000    0.0000 C   0  0
    0.0000    0.0000    0.0000 C   0  0
    0.0000    0.0000    0.0000 C   0  0
    0.0000    0.0000    0.0000 C   0  0
  1  6  1  0
  1  2  2  3
  2  3  1  0
  2 11  1  0
  3  4  2  3
  4  5  1  0
  4  8  1  0
  5  6  2  3
  6  7  1  0
  8  9  1  0
  9 10  1  0
 11 12  1  0
 12 13  1  0
 12 14  1  0
 12 15  1  0
M  END
> <Name>
Terbuthylazine

> <CAS>
005915-41-3

> <VED1>
3.811

> <nHAcc>
5

> <MAXDP>
1.661

> <CIC0>
3.359

> <Log Koc Exp>
2.32

> <Log Koc Pred>
2.51

> <Hat>
0.094

> <Hat Cutoff>
0.161

> <ID Model>
484

> <Smiles>
n1c(nc(nc1Cl)NCC)NC(C)(C)C

$$$$
Bis(2-ethylhexyl) terephthalate
  SciTegic03251110552D

 30 30  0  0  0  0            999 V2000
    0.0000    0.0000    0.0000 C   0  0
    0.0000    0.0000    0.0000 C   0  0
    0.0000    0.0000    0.0000 C   0  0
    0.0000    0.0000    0.0000 C   0  0
    0.0000    0.0000    0.0000 C   0  0
    0.0000    0.0000    0.0000 C   0  0
    0.0000    0.0000    0.0000 C   0  0
    0.0000    0.0000    0.0000 O   0  0
    0.0000    0.0000    0.0000 O   0  0
    0.0000    0.0000    0.0000 C   0  0
    0.0000    0.0000    0.0000 C   0  0
    0.0000    0.0000    0.0000 H   0  0
    0.0000    0.0000    0.0000 C   0  0
    0.0000    0.0000    0.0000 C   0  0
    0.0000    0.0000    0.0000 C   0  0
    0.0000    0.0000    0.0000 C   0  0
    0.0000    0.0000    0.0000 C   0  0
    0.0000    0.0000    0.0000 C   0  0
    0.0000    0.0000    0.0000 C   0  0
    0.0000    0.0000    0.0000 O   0  0
    0.0000    0.0000    0.0000 O   0  0
    0.0000    0.0000    0.0000 C   0  0
    0.0000    0.0000    0.0000 C   0  0
    0.0000    0.0000    0.0000 H   0  0
    0.0000    0.0000    0.0000 C   0  0
    0.0000    0.0000    0.0000 C   0  0
    0.0000    0.0000    0.0000 C   0  0
    0.0000    0.0000    0.0000 C   0  0
    0.0000    0.0000    0.0000 C   0  0
    0.0000    0.0000    0.0000 C   0  0
  1  6  1  0
  1  2  2  3
  2  3  1  0
  3  4  2  3
  3 19  1  0
  4  5  1  0
  5  6  2  3
  6  7  1  0
  7  8  2  0
  7  9  1  0
  9 10  1  0
 10 11  1  0
 11 12  1  0
 11 13  1  0
 11 15  1  0
 13 14  1  0
 15 16  1  0
 16 17  1  0
 17 18  1  0
 19 20  2  0
 19 21  1  0
 21 22  1  0
 22 23  1  0
 23 24  1  0
 23 25  1  0
 23 27  1  0
 25 26  1  0
 27 28  1  0
 28 29  1  0
 29 30  1  0
M  END
> <Name>
Bis(2-ethylhexyl) terephthalate

> <CAS>
006422-86-2

> <VED1>
5.195

> <nHAcc>
4

> <MAXDP>
5.236

> <CIC0>
4.81

> <Log Koc Exp>
4.16

> <Log Koc Pred>
4.17

> <Hat>
0.082

> <Hat Cutoff>
0.161

> <ID Model>
485

> <Smiles>
c1cc(ccc1C(=O)OC[C@@H](CC)CCCC)C(=O)OC[C@@H](CC)CCCC

$$$$
3,5,6-trichloro-2-pyridinol
  SciTegic03251110552D

 10 10  0  0  0  0            999 V2000
    0.0000    0.0000    0.0000 C   0  0
    0.0000    0.0000    0.0000 C   0  0
    0.0000    0.0000    0.0000 C   0  0
    0.0000    0.0000    0.0000 C   0  0
    0.0000    0.0000    0.0000 N   0  0
    0.0000    0.0000    0.0000 C   0  0
    0.0000    0.0000    0.0000 Cl  0  0
    0.0000    0.0000    0.0000 O   0  0
    0.0000    0.0000    0.0000 Cl  0  0
    0.0000    0.0000    0.0000 Cl  0  0
  1  6  1  0
  1  2  2  3
  1 10  1  0
  2  3  1  0
  3  4  2  3
  3  9  1  0
  4  5  1  0
  4  8  1  0
  5  6  2  3
  6  7  1  0
M  END
> <Name>
3,5,6-trichloro-2-pyridinol

> <CAS>
006515-38-4

> <VED1>
3.121

> <nHAcc>
2

> <MAXDP>
2.838

> <CIC0>
1.53

> <Log Koc Exp>
2.11

> <Log Koc Pred>
2.31

> <Hat>
0.066

> <Hat Cutoff>
0.161

> <ID Model>
486

> <Smiles>
c1(cc(c(nc1Cl)O)Cl)Cl

$$$$
Monocrotophos
  SciTegic03251110552D

 14 13  0  0  0  0            999 V2000
    0.0000    0.0000    0.0000 C   0  0
    0.0000    0.0000    0.0000 O   0  0
    0.0000    0.0000    0.0000 P   0  0
    0.0000    0.0000    0.0000 O   0  0
    0.0000    0.0000    0.0000 O   0  0
    0.0000    0.0000    0.0000 C   0  0
    0.0000    0.0000    0.0000 O   0  0
    0.0000    0.0000    0.0000 C   0  0
    0.0000    0.0000    0.0000 C   0  0
    0.0000    0.0000    0.0000 C   0  0
    0.0000    0.0000    0.0000 O   0  0
    0.0000    0.0000    0.0000 N   0  0
    0.0000    0.0000    0.0000 C   0  0
    0.0000    0.0000    0.0000 C   0  0
  1  2  1  0
  2  3  1  0
  3  4  2  0
  3  5  1  0
  3  7  1  0
  5  6  1  0
  7  8  1  0
  8  9  2  3
  8 14  1  0
  9 10  1  0
 10 11  2  0
 10 12  1  0
 12 13  1  0
M  END
> <Name>
Monocrotophos

> <CAS>
006923-22-4

> <VED1>
3.682

> <nHAcc>
6

> <MAXDP>
4.392

> <CIC0>
3.02

> <Log Koc Exp>
0

> <Log Koc Pred>
1.17

> <Hat>
0.047

> <Hat Cutoff>
0.161

> <ID Model>
487

> <Smiles>
COP(=O)(OC)OC(=CC(=O)NC)C

$$$$
3-Methyl-4-bromoaniline
  SciTegic03251110552D

  9  9  0  0  0  0            999 V2000
    0.0000    0.0000    0.0000 C   0  0
    0.0000    0.0000    0.0000 C   0  0
    0.0000    0.0000    0.0000 C   0  0
    0.0000    0.0000    0.0000 C   0  0
    0.0000    0.0000    0.0000 C   0  0
    0.0000    0.0000    0.0000 C   0  0
    0.0000    0.0000    0.0000 Br  0  0
    0.0000    0.0000    0.0000 N   0  0
    0.0000    0.0000    0.0000 C   0  0
  1  6  1  0
  1  2  2  3
  1  9  1  0
  2  3  1  0
  3  4  2  3
  3  8  1  0
  4  5  1  0
  5  6  2  3
  6  7  1  0
M  END
> <Name>
3-Methyl-4-bromoaniline

> <CAS>
006933-10-4

> <VED1>
2.964

> <nHAcc>
1

> <MAXDP>
1.507

> <CIC0>
2.568

> <Log Koc Exp>
2.26

> <Log Koc Pred>
2.39

> <Hat>
0.025

> <Hat Cutoff>
0.161

> <ID Model>
488

> <Smiles>
c1(cc(ccc1Br)N)C

$$$$
2,4,4'-Trichlorobiphenyl
  SciTegic03251110552D

 15 16  0  0  0  0            999 V2000
    0.0000    0.0000    0.0000 Cl  0  0
    0.0000    0.0000    0.0000 C   0  0
    0.0000    0.0000    0.0000 C   0  0
    0.0000    0.0000    0.0000 C   0  0
    0.0000    0.0000    0.0000 C   0  0
    0.0000    0.0000    0.0000 C   0  0
    0.0000    0.0000    0.0000 C   0  0
    0.0000    0.0000    0.0000 C   0  0
    0.0000    0.0000    0.0000 C   0  0
    0.0000    0.0000    0.0000 C   0  0
    0.0000    0.0000    0.0000 C   0  0
    0.0000    0.0000    0.0000 C   0  0
    0.0000    0.0000    0.0000 C   0  0
    0.0000    0.0000    0.0000 Cl  0  0
    0.0000    0.0000    0.0000 Cl  0  0
  1  2  1  0
  2  7  1  0
  2  3  2  3
  3  4  1  0
  4  5  2  3
  5  6  1  0
  5  8  1  0
  6  7  2  3
  8 13  1  0
  8  9  2  3
  9 10  1  0
  9 15  1  0
 10 11  2  3
 11 12  1  0
 11 14  1  0
 12 13  2  3
M  END
> <Name>
2,4,4'-Trichlorobiphenyl

> <CAS>
007012-37-5

> <VED1>
3.815

> <nHAcc>
0

> <MAXDP>
1.975

> <CIC0>
3.065

> <Log Koc Exp>
4.62

> <Log Koc Pred>
4.21

> <Hat>
0.044

> <Hat Cutoff>
0.161

> <ID Model>
489

> <Smiles>
Clc1ccc(cc1)c1c(cc(cc1)Cl)Cl

$$$$
3-Chloro-4-methoxyacetanilide
  SciTegic03251110552D

 13 13  0  0  0  0            999 V2000
    0.0000    0.0000    0.0000 C   0  0
    0.0000    0.0000    0.0000 C   0  0
    0.0000    0.0000    0.0000 C   0  0
    0.0000    0.0000    0.0000 C   0  0
    0.0000    0.0000    0.0000 C   0  0
    0.0000    0.0000    0.0000 C   0  0
    0.0000    0.0000    0.0000 O   0  0
    0.0000    0.0000    0.0000 C   0  0
    0.0000    0.0000    0.0000 Cl  0  0
    0.0000    0.0000    0.0000 N   0  0
    0.0000    0.0000    0.0000 C   0  0
    0.0000    0.0000    0.0000 O   0  0
    0.0000    0.0000    0.0000 C   0  0
  1  6  1  0
  1  2  2  3
  1 10  1  0
  2  3  1  0
  3  4  2  3
  3  9  1  0
  4  5  1  0
  4  7  1  0
  5  6  2  3
  7  8  1  0
 10 11  1  0
 11 12  2  0
 11 13  1  0
M  END
> <Name>
3-Chloro-4-methoxyacetanilide

> <CAS>
007073-42-9

> <VED1>
3.544

> <nHAcc>
3

> <MAXDP>
3.693

> <CIC0>
2.772

> <Log Koc Exp>
1.95

> <Log Koc Pred>
2.19

> <Hat>
0.014

> <Hat Cutoff>
0.161

> <ID Model>
490

> <Smiles>
c1(cc(c(cc1)OC)Cl)NC(=O)C

$$$$
Pyroxychlor
  SciTegic03251110552D

 13 13  0  0  0  0            999 V2000
    0.0000    0.0000    0.0000 N   0  0
    0.0000    0.0000    0.0000 C   0  0
    0.0000    0.0000    0.0000 C   0  0
    0.0000    0.0000    0.0000 C   0  0
    0.0000    0.0000    0.0000 C   0  0
    0.0000    0.0000    0.0000 C   0  0
    0.0000    0.0000    0.0000 Cl  0  0
    0.0000    0.0000    0.0000 C   0  0
    0.0000    0.0000    0.0000 Cl  0  0
    0.0000    0.0000    0.0000 Cl  0  0
    0.0000    0.0000    0.0000 Cl  0  0
    0.0000    0.0000    0.0000 O   0  0
    0.0000    0.0000    0.0000 C   0  0
  1  6  1  0
  1  2  2  3
  2  3  1  0
  2 12  1  0
  3  4  2  3
  4  5  1  0
  4  8  1  0
  5  6  2  3
  6  7  1  0
  8  9  1  0
  8 10  1  0
  8 11  1  0
 12 13  1  0
M  END
> <Name>
Pyroxychlor

> <CAS>
007159-34-4

> <VED1>
3.554

> <nHAcc>
2

> <MAXDP>
1.557

> <CIC0>
2.181

> <Log Koc Exp>
3.48

> <Log Koc Pred>
3.4

> <Hat>
0.051

> <Hat Cutoff>
0.161

> <ID Model>
492

> <Smiles>
n1c(cc(cc1Cl)C(Cl)(Cl)Cl)OC

$$$$
3-(4-Methylphenyl)-1,1-dimethylurea
  SciTegic03251110552D

 13 13  0  0  0  0            999 V2000
    0.0000    0.0000    0.0000 C   0  0
    0.0000    0.0000    0.0000 C   0  0
    0.0000    0.0000    0.0000 C   0  0
    0.0000    0.0000    0.0000 C   0  0
    0.0000    0.0000    0.0000 C   0  0
    0.0000    0.0000    0.0000 C   0  0
    0.0000    0.0000    0.0000 C   0  0
    0.0000    0.0000    0.0000 N   0  0
    0.0000    0.0000    0.0000 C   0  0
    0.0000    0.0000    0.0000 O   0  0
    0.0000    0.0000    0.0000 N   0  0
    0.0000    0.0000    0.0000 C   0  0
    0.0000    0.0000    0.0000 C   0  0
  1  2  1  0
  2  7  1  0
  2  3  2  3
  3  4  1  0
  4  5  2  3
  5  6  1  0
  5  8  1  0
  6  7  2  3
  8  9  1  0
  9 10  2  0
  9 11  1  0
 11 12  1  0
 11 13  1  0
M  END
> <Name>
3-(4-Methylphenyl)-1,1-dimethylurea

> <CAS>
007160-01-2

> <VED1>
3.553

> <nHAcc>
3

> <MAXDP>
4.212

> <CIC0>
3.279

> <Log Koc Exp>
1.51

> <Log Koc Pred>
1.88

> <Hat>
0.029

> <Hat Cutoff>
0.161

> <ID Model>
493

> <Smiles>
Cc1ccc(cc1)NC(=O)N(C)C

$$$$
3-(4-Methoxyphenyl)-1,1-dimethylurea
  SciTegic03251110552D

 14 14  0  0  0  0            999 V2000
    0.0000    0.0000    0.0000 C   0  0
    0.0000    0.0000    0.0000 C   0  0
    0.0000    0.0000    0.0000 C   0  0
    0.0000    0.0000    0.0000 C   0  0
    0.0000    0.0000    0.0000 C   0  0
    0.0000    0.0000    0.0000 C   0  0
    0.0000    0.0000    0.0000 O   0  0
    0.0000    0.0000    0.0000 C   0  0
    0.0000    0.0000    0.0000 N   0  0
    0.0000    0.0000    0.0000 C   0  0
    0.0000    0.0000    0.0000 O   0  0
    0.0000    0.0000    0.0000 N   0  0
    0.0000    0.0000    0.0000 C   0  0
    0.0000    0.0000    0.0000 C   0  0
  1  6  1  0
  1  2  2  3
  1  9  1  0
  2  3  1  0
  3  4  2  3
  4  5  1  0
  4  7  1  0
  5  6  2  3
  7  8  1  0
  9 10  1  0
 10 11  2  0
 10 12  1  0
 12 13  1  0
 12 14  1  0
M  END
> <Name>
3-(4-Methoxyphenyl)-1,1-dimethylurea

> <CAS>
007160-02-3

> <VED1>
3.68

> <nHAcc>
4

> <MAXDP>
4.25

> <CIC0>
3.233

> <Log Koc Exp>
1.4

> <Log Koc Pred>
1.82

> <Hat>
0.024

> <Hat Cutoff>
0.161

> <ID Model>
494

> <Smiles>
c1(ccc(cc1)OC)NC(=O)N(C)C

$$$$
Prometryn
  SciTegic03251110552D

 16 16  0  0  0  0            999 V2000
    0.0000    0.0000    0.0000 N   0  0
    0.0000    0.0000    0.0000 C   0  0
    0.0000    0.0000    0.0000 N   0  0
    0.0000    0.0000    0.0000 C   0  0
    0.0000    0.0000    0.0000 N   0  0
    0.0000    0.0000    0.0000 C   0  0
    0.0000    0.0000    0.0000 S   0  0
    0.0000    0.0000    0.0000 C   0  0
    0.0000    0.0000    0.0000 N   0  0
    0.0000    0.0000    0.0000 C   0  0
    0.0000    0.0000    0.0000 C   0  0
    0.0000    0.0000    0.0000 C   0  0
    0.0000    0.0000    0.0000 N   0  0
    0.0000    0.0000    0.0000 C   0  0
    0.0000    0.0000    0.0000 C   0  0
    0.0000    0.0000    0.0000 C   0  0
  1  6  1  0
  1  2  2  3
  2  3  1  0
  2 13  1  0
  3  4  2  3
  4  5  1  0
  4  9  1  0
  5  6  2  3
  6  7  1  0
  7  8  1  0
  9 10  1  0
 10 11  1  0
 10 12  1  0
 13 14  1  0
 14 15  1  0
 14 16  1  0
M  END
> <Name>
Prometryn

> <CAS>
007287-19-6

> <VED1>
3.93

> <nHAcc>
5

> <MAXDP>
1.304

> <CIC0>
3.587

> <Log Koc Exp>
2.85

> <Log Koc Pred>
2.79

> <Hat>
0.12

> <Hat Cutoff>
0.161

> <ID Model>
496

> <Smiles>
n1c(nc(nc1SC)NC(C)C)NC(C)C

$$$$
Crotoxyphos(trans)
  SciTegic03251110552D

 22 22  0  0  0  0            999 V2000
    0.0000    0.0000    0.0000 C   0  0
    0.0000    0.0000    0.0000 O   0  0
    0.0000    0.0000    0.0000 P   0  0
    0.0000    0.0000    0.0000 O   0  0
    0.0000    0.0000    0.0000 O   0  0
    0.0000    0.0000    0.0000 C   0  0
    0.0000    0.0000    0.0000 O   0  0
    0.0000    0.0000    0.0000 C   0  0
    0.0000    0.0000    0.0000 C   0  0
    0.0000    0.0000    0.0000 C   0  0
    0.0000    0.0000    0.0000 O   0  0
    0.0000    0.0000    0.0000 O   0  0
    0.0000    0.0000    0.0000 C   0  0
    0.0000    0.0000    0.0000 H   0  0
    0.0000    0.0000    0.0000 C   0  0
    0.0000    0.0000    0.0000 C   0  0
    0.0000    0.0000    0.0000 C   0  0
    0.0000    0.0000    0.0000 C   0  0
    0.0000    0.0000    0.0000 C   0  0
    0.0000    0.0000    0.0000 C   0  0
    0.0000    0.0000    0.0000 C   0  0
    0.0000    0.0000    0.0000 C   0  0
  1  2  1  0
  2  3  1  0
  3  4  2  0
  3  5  1  0
  3  7  1  0
  5  6  1  0
  7  8  1  0
  8  9  2  3
  8 22  1  0
  9 10  1  0
 10 11  2  0
 10 12  1  0
 12 13  1  0
 13 14  1  0
 13 15  1  0
 13 16  1  0
 16 21  1  0
 16 17  2  3
 17 18  1  0
 18 19  2  3
 19 20  1  0
 20 21  2  3
M  END
> <Name>
Crotoxyphos(trans)

> <CAS>
007700-17-6

> <VED1>
4.522

> <nHAcc>
6

> <MAXDP>
4.75

> <CIC0>
3.738

> <Log Koc Exp>
2

> <Log Koc Pred>
2.59

> <Hat>
0.036

> <Hat Cutoff>
0.161

> <ID Model>
497

> <Smiles>
COP(=O)(OC)OC(=CC(=O)O[C@H](C)c1ccccc1)C

$$$$
Mevinphos(cis)
  SciTegic03251110552D

 14 13  0  0  0  0            999 V2000
    0.0000    0.0000    0.0000 O   0  0
    0.0000    0.0000    0.0000 P   0  0
    0.0000    0.0000    0.0000 O   0  0
    0.0000    0.0000    0.0000 O   0  0
    0.0000    0.0000    0.0000 C   0  0
    0.0000    0.0000    0.0000 O   0  0
    0.0000    0.0000    0.0000 C   0  0
    0.0000    0.0000    0.0000 C   0  0
    0.0000    0.0000    0.0000 C   0  0
    0.0000    0.0000    0.0000 C   0  0
    0.0000    0.0000    0.0000 O   0  0
    0.0000    0.0000    0.0000 O   0  0
    0.0000    0.0000    0.0000 C   0  0
    0.0000    0.0000    0.0000 C   0  0
  1  2  1  0
  1  8  1  0
  2  3  2  0
  2  4  1  0
  2  6  1  0
  4  5  1  0
  6  7  1  0
  8  9  2  3
  8 14  1  0
  9 10  1  0
 10 11  2  0
 10 12  1  0
 12 13  1  0
M  END
> <Name>
Mevinphos(cis)

> <CAS>
007786-34-7

> <VED1>
3.682

> <nHAcc>
6

> <MAXDP>
4.371

> <CIC0>
3.084

> <Log Koc Exp>
1.97

> <Log Koc Pred>
1.16

> <Hat>
0.05

> <Hat Cutoff>
0.161

> <ID Model>
498

> <Smiles>
O(P(=O)(OC)OC)C(=CC(=O)OC)C

$$$$
Toxaphene
  SciTegic03251110552D

 23 24  0  0  0  0            999 V2000
    0.0000    0.0000    0.0000 Cl  0  0
    0.0000    0.0000    0.0000 C   0  0
    0.0000    0.0000    0.0000 C   0  0
    0.0000    0.0000    0.0000 C   0  0
    0.0000    0.0000    0.0000 H   0  0
    0.0000    0.0000    0.0000 C   0  0
    0.0000    0.0000    0.0000 H   0  0
    0.0000    0.0000    0.0000 Cl  0  0
    0.0000    0.0000    0.0000 C   0  0
    0.0000    0.0000    0.0000 H   0  0
    0.0000    0.0000    0.0000 C   0  0
    0.0000    0.0000    0.0000 H   0  0
    0.0000    0.0000    0.0000 Cl  0  0
    0.0000    0.0000    0.0000 C   0  0
    0.0000    0.0000    0.0000 H   0  0
    0.0000    0.0000    0.0000 Cl  0  0
    0.0000    0.0000    0.0000 C   0  0
    0.0000    0.0000    0.0000 C   0  0
    0.0000    0.0000    0.0000 Cl  0  0
    0.0000    0.0000    0.0000 C   0  0
    0.0000    0.0000    0.0000 Cl  0  0
    0.0000    0.0000    0.0000 Cl  0  0
    0.0000    0.0000    0.0000 Cl  0  0
  1  2  1  0
  2  3  1  0
  2 23  1  0
  3 14  1  0
  3 17  1  0
  3  4  1  0
  4  5  1  0
  4  6  1  0
  4 22  1  0
  6  7  1  0
  6  8  1  0
  6  9  1  0
  9 10  1  0
  9 11  1  0
  9 17  1  0
 11 12  1  0
 11 13  1  0
 11 14  1  0
 14 15  1  0
 14 16  1  0
 17 18  1  0
 17 20  1  0
 18 19  1  0
 20 21  1  0
M  END
> <Name>
Toxaphene

> <CAS>
008001-35-2

> <VED1>
4.171

> <nHAcc>
0

> <MAXDP>
2.341

> <CIC0>
3.23

> <Log Koc Exp>
3.14

> <Log Koc Pred>
4.79

> <Hat>
0.068

> <Hat Cutoff>
0.161

> <ID Model>
499

> <Smiles>
ClC([C@]12[C@H]([C@H](Cl)[C@H]([C@H](Cl)[C@H]1Cl)C2(CCl)CCl)Cl)Cl

$$$$
trans-1,3-Dichloropropene
  SciTegic03251110552D

  5  4  0  0  0  0            999 V2000
    0.0000    0.0000    0.0000 C   0  0
    0.0000    0.0000    0.0000 Cl  0  0
    0.0000    0.0000    0.0000 C   0  0
    0.0000    0.0000    0.0000 C   0  0
    0.0000    0.0000    0.0000 Cl  0  0
  1  2  1  0
  1  3  1  0
  3  4  2  3
  4  5  1  0
M  END
> <Name>
trans-1,3-Dichloropropene

> <CAS>
010061-02-6

> <VED1>
2.204

> <nHAcc>
0

> <MAXDP>
1.019

> <CIC0>
1.639

> <Log Koc Exp>
1.41

> <Log Koc Pred>
1.59

> <Hat>
0.055

> <Hat Cutoff>
0.161

> <ID Model>
500

> <Smiles>
C(Cl)C=CCl

$$$$
Methamidophos
  SciTegic03251110552D

  7  6  0  0  0  0            999 V2000
    0.0000    0.0000    0.0000 N   0  0
    0.0000    0.0000    0.0000 P   0  0
    0.0000    0.0000    0.0000 O   0  0
    0.0000    0.0000    0.0000 O   0  0
    0.0000    0.0000    0.0000 C   0  0
    0.0000    0.0000    0.0000 S   0  0
    0.0000    0.0000    0.0000 C   0  0
  1  2  1  0
  2  3  2  0
  2  4  1  0
  2  6  1  0
  4  5  1  0
  6  7  1  0
M  END
> <Name>
Methamidophos

> <CAS>
010265-92-6

> <VED1>
2.601

> <nHAcc>
3

> <MAXDP>
3.47

> <CIC0>
1.867

> <Log Koc Exp>
0.7

> <Log Koc Pred>
0.58

> <Hat>
0.052

> <Hat Cutoff>
0.161

> <ID Model>
501

> <Smiles>
NP(=O)(OC)SC

$$$$
Terbufos sulfoxide
  SciTegic03251110552D

 16 15  0  0  0  0            999 V2000
    0.0000    0.0000    0.0000 C   0  0
    0.0000    0.0000    0.0000 C   0  0
    0.0000    0.0000    0.0000 O   0  0
    0.0000    0.0000    0.0000 P   0  0
    0.0000    0.0000    0.0000 S   0  0
    0.0000    0.0000    0.0000 O   0  0
    0.0000    0.0000    0.0000 C   0  0
    0.0000    0.0000    0.0000 C   0  0
    0.0000    0.0000    0.0000 S   0  0
    0.0000    0.0000    0.0000 C   0  0
    0.0000    0.0000    0.0000 S   0  0
    0.0000    0.0000    0.0000 O   0  0
    0.0000    0.0000    0.0000 C   0  0
    0.0000    0.0000    0.0000 C   0  0
    0.0000    0.0000    0.0000 C   0  0
    0.0000    0.0000    0.0000 C   0  0
  1  2  1  0
  2  3  1  0
  3  4  1  0
  4  5  2  0
  4  6  1  0
  4  9  1  0
  6  7  1  0
  7  8  1  0
  9 10  1  0
 10 11  1  0
 11 12  2  0
 11 13  1  0
 13 14  1  0
 13 15  1  0
 13 16  1  0
M  END
> <Name>
Terbufos sulfoxide

> <CAS>
010548-10-4

> <VED1>
3.937

> <nHAcc>
3

> <MAXDP>
4.87

> <CIC0>
3.521

> <Log Koc Exp>
2.18

> <Log Koc Pred>
2.41

> <Hat>
0.037

> <Hat Cutoff>
0.161

> <ID Model>
502

> <Smiles>
CCOP(=S)(OCC)SC[S@](=O)C(C)(C)C

$$$$
Carbendazim (MBC)
  SciTegic03251110552D

 15 16  0  0  0  0            999 V2000
    0.0000    0.0000    0.0000 C   0  0
    0.0000    0.0000    0.0000 C   0  0
    0.0000    0.0000    0.0000 C   0  0
    0.0000    0.0000    0.0000 C   0  0
    0.0000    0.0000    0.0000 C   0  0
    0.0000    0.0000    0.0000 C   0  0
    0.0000    0.0000    0.0000 N   0  0
    0.0000    0.0000    0.0000 C   0  0
    0.0000    0.0000    0.0000 H   0  0
    0.0000    0.0000    0.0000 N   0  0
    0.0000    0.0000    0.0000 N   0  0
    0.0000    0.0000    0.0000 C   0  0
    0.0000    0.0000    0.0000 O   0  0
    0.0000    0.0000    0.0000 O   0  0
    0.0000    0.0000    0.0000 C   0  0
  1  6  1  0
  1  2  2  3
  2  3  1  0
  3 10  1  0
  3  4  2  3
  4  5  1  0
  4  7  1  0
  5  6  2  3
  7  8  1  0
  8  9  1  0
  8 10  1  0
  8 11  1  0
 11 12  1  0
 12 13  2  0
 12 14  1  0
 14 15  1  0
M  END
> <Name>
Carbendazim (MBC)

> <CAS>
010605-21-7

> <VED1>
3.686

> <nHAcc>
5

> <MAXDP>
3.906

> <CIC0>
2.934

> <Log Koc Exp>
2.35

> <Log Koc Pred>
1.69

> <Hat>
0.027

> <Hat Cutoff>
0.161

> <ID Model>
503

> <Smiles>
c1cc2c(cc1)N[C@@H](N2)NC(=O)OC

$$$$
Ancymidol
  SciTegic03251110552D

 19 21  0  0  0  0            999 V2000
    0.0000    0.0000    0.0000 C   0  0
    0.0000    0.0000    0.0000 N   0  0
    0.0000    0.0000    0.0000 C   0  0
    0.0000    0.0000    0.0000 C   0  0
    0.0000    0.0000    0.0000 C   0  0
    0.0000    0.0000    0.0000 C   0  0
    0.0000    0.0000    0.0000 C   0  0
    0.0000    0.0000    0.0000 C   0  0
    0.0000    0.0000    0.0000 C   0  0
    0.0000    0.0000    0.0000 C   0  0
    0.0000    0.0000    0.0000 C   0  0
    0.0000    0.0000    0.0000 O   0  0
    0.0000    0.0000    0.0000 C   0  0
    0.0000    0.0000    0.0000 C   0  0
    0.0000    0.0000    0.0000 C   0  0
    0.0000    0.0000    0.0000 C   0  0
    0.0000    0.0000    0.0000 O   0  0
    0.0000    0.0000    0.0000 C   0  0
    0.0000    0.0000    0.0000 N   0  0
  1 19  1  0
  1  2  2  3
  2  3  1  0
  3  4  2  3
  4  5  1  0
  4 18  1  0
  5  6  1  0
  5 14  1  0
  5 17  1  0
  6 11  1  0
  6  7  2  3
  7  8  1  0
  8  9  2  3
  9 10  1  0
  9 12  1  0
 10 11  2  3
 12 13  1  0
 14 16  1  0
 14 15  1  0
 15 16  1  0
 18 19  2  3
M  END
> <Name>
Ancymidol

> <CAS>
012771-68-5

> <VED1>
4.283

> <nHAcc>
4

> <MAXDP>
5.136

> <CIC0>
3.617

> <Log Koc Exp>
2.08

> <Log Koc Pred>
2.68

> <Hat>
0.032

> <Hat Cutoff>
0.161

> <ID Model>
504

> <Smiles>
c1ncc([C@](c2ccc(cc2)OC)(C2CC2)O)cn1

$$$$
2,2'-Dichlorobiphenyl
  SciTegic03251110552D

 14 15  0  0  0  0            999 V2000
    0.0000    0.0000    0.0000 C   0  0
    0.0000    0.0000    0.0000 C   0  0
    0.0000    0.0000    0.0000 C   0  0
    0.0000    0.0000    0.0000 C   0  0
    0.0000    0.0000    0.0000 C   0  0
    0.0000    0.0000    0.0000 C   0  0
    0.0000    0.0000    0.0000 Cl  0  0
    0.0000    0.0000    0.0000 C   0  0
    0.0000    0.0000    0.0000 C   0  0
    0.0000    0.0000    0.0000 C   0  0
    0.0000    0.0000    0.0000 C   0  0
    0.0000    0.0000    0.0000 C   0  0
    0.0000    0.0000    0.0000 C   0  0
    0.0000    0.0000    0.0000 Cl  0  0
  1  6  1  0
  1  2  2  3
  2  3  1  0
  2  8  1  0
  3  4  2  3
  3  7  1  0
  4  5  1  0
  5  6  2  3
  8 13  1  0
  8  9  2  3
  9 10  1  0
  9 14  1  0
 10 11  2  3
 11 12  1  0
 12 13  2  3
M  END
> <Name>
2,2'-Dichlorobiphenyl

> <CAS>
013029-08-8

> <VED1>
3.696

> <nHAcc>
0

> <MAXDP>
1.961

> <CIC0>
3.137

> <Log Koc Exp>
3.92

> <Log Koc Pred>
3.94

> <Hat>
0.037

> <Hat Cutoff>
0.161

> <ID Model>
505

> <Smiles>
c1c(c(ccc1)Cl)c1c(cccc1)Cl

$$$$
Terbufos
  SciTegic03251110552D

 15 14  0  0  0  0            999 V2000
    0.0000    0.0000    0.0000 S   0  0
    0.0000    0.0000    0.0000 C   0  0
    0.0000    0.0000    0.0000 S   0  0
    0.0000    0.0000    0.0000 P   0  0
    0.0000    0.0000    0.0000 S   0  0
    0.0000    0.0000    0.0000 O   0  0
    0.0000    0.0000    0.0000 C   0  0
    0.0000    0.0000    0.0000 C   0  0
    0.0000    0.0000    0.0000 O   0  0
    0.0000    0.0000    0.0000 C   0  0
    0.0000    0.0000    0.0000 C   0  0
    0.0000    0.0000    0.0000 C   0  0
    0.0000    0.0000    0.0000 C   0  0
    0.0000    0.0000    0.0000 C   0  0
    0.0000    0.0000    0.0000 C   0  0
  1  2  1  0
  1 12  1  0
  2  3  1  0
  3  4  1  0
  4  5  2  0
  4  6  1  0
  4  9  1  0
  6  7  1  0
  7  8  1  0
  9 10  1  0
 10 11  1  0
 12 13  1  0
 12 14  1  0
 12 15  1  0
M  END
> <Name>
Terbufos

> <CAS>
013071-79-9

> <VED1>
3.809

> <nHAcc>
2

> <MAXDP>
2.038

> <CIC0>
3.542

> <Log Koc Exp>
2.82

> <Log Koc Pred>
3.34

> <Hat>
0.029

> <Hat Cutoff>
0.161

> <ID Model>
506

> <Smiles>
S(CSP(=S)(OCC)OCC)C(C)(C)C

$$$$
3-Trifluoromethylphenylurea
  SciTegic03251110552D

 14 14  0  0  0  0            999 V2000
    0.0000    0.0000    0.0000 C   0  0
    0.0000    0.0000    0.0000 C   0  0
    0.0000    0.0000    0.0000 C   0  0
    0.0000    0.0000    0.0000 C   0  0
    0.0000    0.0000    0.0000 C   0  0
    0.0000    0.0000    0.0000 C   0  0
    0.0000    0.0000    0.0000 C   0  0
    0.0000    0.0000    0.0000 F   0  0
    0.0000    0.0000    0.0000 F   0  0
    0.0000    0.0000    0.0000 F   0  0
    0.0000    0.0000    0.0000 N   0  0
    0.0000    0.0000    0.0000 C   0  0
    0.0000    0.0000    0.0000 O   0  0
    0.0000    0.0000    0.0000 N   0  0
  1  6  1  0
  1  2  2  3
  2  3  1  0
  2 11  1  0
  3  4  2  3
  4  5  1  0
  5  6  2  3
  6  7  1  0
  7  8  1  0
  7  9  1  0
  7 10  1  0
 11 12  1  0
 12 13  2  0
 12 14  1  0
M  END
> <Name>
3-Trifluoromethylphenylurea

> <CAS>
013114-87-9

> <VED1>
3.688

> <nHAcc>
6

> <MAXDP>
4.161

> <CIC0>
2.4

> <Log Koc Exp>
1.97

> <Log Koc Pred>
1.46

> <Hat>
0.047

> <Hat Cutoff>
0.161

> <ID Model>
507

> <Smiles>
c1c(cccc1C(F)(F)F)NC(=O)N

$$$$
3-Phenyl-1-cyclopropylurea
  SciTegic03251110552D

 13 14  0  0  0  0            999 V2000
    0.0000    0.0000    0.0000 C   0  0
    0.0000    0.0000    0.0000 C   0  0
    0.0000    0.0000    0.0000 C   0  0
    0.0000    0.0000    0.0000 C   0  0
    0.0000    0.0000    0.0000 C   0  0
    0.0000    0.0000    0.0000 C   0  0
    0.0000    0.0000    0.0000 N   0  0
    0.0000    0.0000    0.0000 C   0  0
    0.0000    0.0000    0.0000 O   0  0
    0.0000    0.0000    0.0000 N   0  0
    0.0000    0.0000    0.0000 C   0  0
    0.0000    0.0000    0.0000 C   0  0
    0.0000    0.0000    0.0000 C   0  0
  1  6  1  0
  1  2  2  3
  2  3  1  0
  3  4  2  3
  4  5  1  0
  5  6  2  3
  6  7  1  0
  7  8  1  0
  8  9  2  0
  8 10  1  0
 10 11  1  0
 11 13  1  0
 11 12  1  0
 12 13  1  0
M  END
> <Name>
3-Phenyl-1-cyclopropylurea

> <CAS>
013140-86-8

> <VED1>
3.559

> <nHAcc>
3

> <MAXDP>
4.241

> <CIC0>
3.13

> <Log Koc Exp>
1.73

> <Log Koc Pred>
1.94

> <Hat>
0.025

> <Hat Cutoff>
0.161

> <ID Model>
508

> <Smiles>
c1ccccc1NC(=O)NC1CC1

$$$$
Ethoprophos
  SciTegic03251110552D

 13 12  0  0  0  0            999 V2000
    0.0000    0.0000    0.0000 C   0  0
    0.0000    0.0000    0.0000 C   0  0
    0.0000    0.0000    0.0000 C   0  0
    0.0000    0.0000    0.0000 S   0  0
    0.0000    0.0000    0.0000 P   0  0
    0.0000    0.0000    0.0000 O   0  0
    0.0000    0.0000    0.0000 S   0  0
    0.0000    0.0000    0.0000 C   0  0
    0.0000    0.0000    0.0000 C   0  0
    0.0000    0.0000    0.0000 C   0  0
    0.0000    0.0000    0.0000 O   0  0
    0.0000    0.0000    0.0000 C   0  0
    0.0000    0.0000    0.0000 C   0  0
  1  2  1  0
  2  3  1  0
  3  4  1  0
  4  5  1  0
  5  6  2  0
  5  7  1  0
  5 11  1  0
  7  8  1  0
  8  9  1  0
  9 10  1  0
 11 12  1  0
 12 13  1  0
M  END
> <Name>
Ethoprophos

> <CAS>
013194-48-4

> <VED1>
3.53

> <nHAcc>
2

> <MAXDP>
5.035

> <CIC0>
3.397

> <Log Koc Exp>
1.82

> <Log Koc Pred>
1.88

> <Hat>
0.069

> <Hat Cutoff>
0.161

> <ID Model>
511

> <Smiles>
CCCSP(=O)(SCCC)OCC

$$$$
Chlorbromuron
  SciTegic03251110552D

 15 15  0  0  0  0            999 V2000
    0.0000    0.0000    0.0000 C   0  0
    0.0000    0.0000    0.0000 C   0  0
    0.0000    0.0000    0.0000 C   0  0
    0.0000    0.0000    0.0000 C   0  0
    0.0000    0.0000    0.0000 C   0  0
    0.0000    0.0000    0.0000 C   0  0
    0.0000    0.0000    0.0000 N   0  0
    0.0000    0.0000    0.0000 C   0  0
    0.0000    0.0000    0.0000 O   0  0
    0.0000    0.0000    0.0000 N   0  0
    0.0000    0.0000    0.0000 O   0  0
    0.0000    0.0000    0.0000 C   0  0
    0.0000    0.0000    0.0000 C   0  0
    0.0000    0.0000    0.0000 Cl  0  0
    0.0000    0.0000    0.0000 Br  0  0
  1  6  1  0
  1  2  2  3
  2  3  1  0
  2 15  1  0
  3  4  2  3
  3 14  1  0
  4  5  1  0
  5  6  2  3
  5  7  1  0
  7  8  1  0
  8  9  2  0
  8 10  1  0
 10 11  1  0
 10 13  1  0
 11 12  1  0
M  END
> <Name>
Chlorbromuron

> <CAS>
013360-45-7

> <VED1>
3.816

> <nHAcc>
4

> <MAXDP>
4.375

> <CIC0>
2.63

> <Log Koc Exp>
2.7

> <Log Koc Pred>
2.26

> <Hat>
0.025

> <Hat Cutoff>
0.161

> <ID Model>
512

> <Smiles>
c1c(c(cc(c1)NC(=O)N(OC)C)Cl)Br

$$$$
Desmedipham
  SciTegic03251110552D

 22 23  0  0  0  0            999 V2000
    0.0000    0.0000    0.0000 C   0  0
    0.0000    0.0000    0.0000 C   0  0
    0.0000    0.0000    0.0000 C   0  0
    0.0000    0.0000    0.0000 C   0  0
    0.0000    0.0000    0.0000 C   0  0
    0.0000    0.0000    0.0000 C   0  0
    0.0000    0.0000    0.0000 N   0  0
    0.0000    0.0000    0.0000 C   0  0
    0.0000    0.0000    0.0000 O   0  0
    0.0000    0.0000    0.0000 O   0  0
    0.0000    0.0000    0.0000 C   0  0
    0.0000    0.0000    0.0000 C   0  0
    0.0000    0.0000    0.0000 C   0  0
    0.0000    0.0000    0.0000 C   0  0
    0.0000    0.0000    0.0000 C   0  0
    0.0000    0.0000    0.0000 C   0  0
    0.0000    0.0000    0.0000 N   0  0
    0.0000    0.0000    0.0000 C   0  0
    0.0000    0.0000    0.0000 O   0  0
    0.0000    0.0000    0.0000 O   0  0
    0.0000    0.0000    0.0000 C   0  0
    0.0000    0.0000    0.0000 C   0  0
  1  6  1  0
  1  2  2  3
  2  3  1  0
  3  4  2  3
  4  5  1  0
  5  6  2  3
  5  7  1  0
  7  8  1  0
  8  9  2  0
  8 10  1  0
 10 11  1  0
 11 16  1  0
 11 12  2  3
 12 13  1  0
 13 14  2  3
 14 15  1  0
 15 16  2  3
 15 17  1  0
 17 18  1  0
 18 19  2  0
 18 20  1  0
 20 21  1  0
 21 22  1  0
M  END
> <Name>
Desmedipham

> <CAS>
013684-56-5

> <VED1>
4.616

> <nHAcc>
6

> <MAXDP>
4.772

> <CIC0>
3.632

> <Log Koc Exp>
3.24

> <Log Koc Pred>
2.81

> <Hat>
0.034

> <Hat Cutoff>
0.161

> <ID Model>
513

> <Smiles>
c1cccc(c1)NC(=O)Oc1cccc(c1)NC(=O)OCC

$$$$
Fensulfothion sulfone
  SciTegic03251110552D

 19 19  0  0  0  0            999 V2000
    0.0000    0.0000    0.0000 C   0  0
    0.0000    0.0000    0.0000 C   0  0
    0.0000    0.0000    0.0000 C   0  0
    0.0000    0.0000    0.0000 C   0  0
    0.0000    0.0000    0.0000 C   0  0
    0.0000    0.0000    0.0000 C   0  0
    0.0000    0.0000    0.0000 O   0  0
    0.0000    0.0000    0.0000 P   0  0
    0.0000    0.0000    0.0000 S   0  0
    0.0000    0.0000    0.0000 O   0  0
    0.0000    0.0000    0.0000 C   0  0
    0.0000    0.0000    0.0000 C   0  0
    0.0000    0.0000    0.0000 O   0  0
    0.0000    0.0000    0.0000 C   0  0
    0.0000    0.0000    0.0000 C   0  0
    0.0000    0.0000    0.0000 S   0  0
    0.0000    0.0000    0.0000 O   0  0
    0.0000    0.0000    0.0000 O   0  0
    0.0000    0.0000    0.0000 C   0  0
  1  6  1  0
  1  2  2  3
  1 16  1  0
  2  3  1  0
  3  4  2  3
  4  5  1  0
  4  7  1  0
  5  6  2  3
  7  8  1  0
  8  9  2  0
  8 10  1  0
  8 13  1  0
 10 11  1  0
 11 12  1  0
 13 14  1  0
 14 15  1  0
 16 17  2  0
 16 18  2  0
 16 19  1  0
M  END
> <Name>
Fensulfothion sulfone

> <CAS>
014255-72-2

> <VED1>
4.286

> <nHAcc>
5

> <MAXDP>
4.331

> <CIC0>
3.365

> <Log Koc Exp>
2.17

> <Log Koc Pred>
2.68

> <Hat>
0.021

> <Hat Cutoff>
0.161

> <ID Model>
515

> <Smiles>
c1(ccc(cc1)OP(=S)(OCC)OCC)S(=O)(=O)C

$$$$
Napropamide
  SciTegic03251110552D

 21 22  0  0  0  0            999 V2000
    0.0000    0.0000    0.0000 C   0  0
    0.0000    0.0000    0.0000 C   0  0
    0.0000    0.0000    0.0000 C   0  0
    0.0000    0.0000    0.0000 C   0  0
    0.0000    0.0000    0.0000 C   0  0
    0.0000    0.0000    0.0000 C   0  0
    0.0000    0.0000    0.0000 C   0  0
    0.0000    0.0000    0.0000 C   0  0
    0.0000    0.0000    0.0000 C   0  0
    0.0000    0.0000    0.0000 C   0  0
    0.0000    0.0000    0.0000 O   0  0
    0.0000    0.0000    0.0000 C   0  0
    0.0000    0.0000    0.0000 H   0  0
    0.0000    0.0000    0.0000 C   0  0
    0.0000    0.0000    0.0000 C   0  0
    0.0000    0.0000    0.0000 O   0  0
    0.0000    0.0000    0.0000 N   0  0
    0.0000    0.0000    0.0000 C   0  0
    0.0000    0.0000    0.0000 C   0  0
    0.0000    0.0000    0.0000 C   0  0
    0.0000    0.0000    0.0000 C   0  0
  1  6  1  0
  1  2  2  3
  2  3  1  0
  3  4  2  3
  4  5  1  0
  4 11  1  0
  5 10  1  0
  5  6  2  3
  6  7  1  0
  7  8  2  3
  8  9  1  0
  9 10  2  3
 11 12  1  0
 12 13  1  0
 12 14  1  0
 12 15  1  0
 15 16  2  0
 15 17  1  0
 17 18  1  0
 17 20  1  0
 18 19  1  0
 20 21  1  0
M  END
> <Name>
Napropamide

> <CAS>
015299-99-7

> <VED1>
4.412

> <nHAcc>
3

> <MAXDP>
5.247

> <CIC0>
3.993

> <Log Koc Exp>
2.66

> <Log Koc Pred>
3.13

> <Hat>
0.056

> <Hat Cutoff>
0.161

> <ID Model>
516

> <Smiles>
c1ccc(c2c1cccc2)O[C@H](C)C(=O)N(CC)CC

$$$$
2,2',6,6'-Tetrachlorobiphenyl
  SciTegic03251110552D

 16 17  0  0  0  0            999 V2000
    0.0000    0.0000    0.0000 C   0  0
    0.0000    0.0000    0.0000 C   0  0
    0.0000    0.0000    0.0000 C   0  0
    0.0000    0.0000    0.0000 C   0  0
    0.0000    0.0000    0.0000 C   0  0
    0.0000    0.0000    0.0000 C   0  0
    0.0000    0.0000    0.0000 Cl  0  0
    0.0000    0.0000    0.0000 C   0  0
    0.0000    0.0000    0.0000 C   0  0
    0.0000    0.0000    0.0000 C   0  0
    0.0000    0.0000    0.0000 C   0  0
    0.0000    0.0000    0.0000 C   0  0
    0.0000    0.0000    0.0000 C   0  0
    0.0000    0.0000    0.0000 Cl  0  0
    0.0000    0.0000    0.0000 Cl  0  0
    0.0000    0.0000    0.0000 Cl  0  0
  1  6  1  0
  1  2  2  3
  1 16  1  0
  2  3  1  0
  2  8  1  0
  3  4  2  3
  3  7  1  0
  4  5  1  0
  5  6  2  3
  8 13  1  0
  8  9  2  3
  9 10  1  0
  9 15  1  0
 10 11  2  3
 11 12  1  0
 12 13  2  3
 13 14  1  0
M  END
> <Name>
2,2',6,6'-Tetrachlorobiphenyl

> <CAS>
015968-05-5

> <VED1>
3.951

> <nHAcc>
0

> <MAXDP>
1.995

> <CIC0>
3.024

> <Log Koc Exp>
5.01

> <Log Koc Pred>
4.5

> <Hat>
0.056

> <Hat Cutoff>
0.161

> <ID Model>
518

> <Smiles>
c1(c(c(ccc1)Cl)c1c(cccc1Cl)Cl)Cl

$$$$
Alachlor
  SciTegic03251110552D

 18 18  0  0  0  0            999 V2000
    0.0000    0.0000    0.0000 C   0  0
    0.0000    0.0000    0.0000 C   0  0
    0.0000    0.0000    0.0000 C   0  0
    0.0000    0.0000    0.0000 C   0  0
    0.0000    0.0000    0.0000 C   0  0
    0.0000    0.0000    0.0000 C   0  0
    0.0000    0.0000    0.0000 C   0  0
    0.0000    0.0000    0.0000 C   0  0
    0.0000    0.0000    0.0000 N   0  0
    0.0000    0.0000    0.0000 C   0  0
    0.0000    0.0000    0.0000 O   0  0
    0.0000    0.0000    0.0000 C   0  0
    0.0000    0.0000    0.0000 C   0  0
    0.0000    0.0000    0.0000 O   0  0
    0.0000    0.0000    0.0000 C   0  0
    0.0000    0.0000    0.0000 Cl  0  0
    0.0000    0.0000    0.0000 C   0  0
    0.0000    0.0000    0.0000 C   0  0
  1  6  1  0
  1  2  2  3
  2  3  1  0
  3  4  2  3
  4  5  1  0
  4 17  1  0
  5  6  2  3
  5  9  1  0
  6  7  1  0
  7  8  1  0
  9 10  1  0
  9 13  1  0
 10 11  1  0
 11 12  1  0
 13 14  2  0
 13 15  1  0
 15 16  1  0
 17 18  1  0
M  END
> <Name>
Alachlor

> <CAS>
015972-60-8

> <VED1>
4.17

> <nHAcc>
3

> <MAXDP>
4.953

> <CIC0>
3.73

> <Log Koc Exp>
2.28

> <Log Koc Pred>
2.8

> <Hat>
0.041

> <Hat Cutoff>
0.161

> <ID Model>
519

> <Smiles>
c1ccc(c(c1CC)N(COC)C(=O)CCl)CC

$$$$
Methomyl
  SciTegic03251110552D

 10  9  0  0  0  0            999 V2000
    0.0000    0.0000    0.0000 C   0  0
    0.0000    0.0000    0.0000 C   0  0
    0.0000    0.0000    0.0000 N   0  0
    0.0000    0.0000    0.0000 O   0  0
    0.0000    0.0000    0.0000 C   0  0
    0.0000    0.0000    0.0000 O   0  0
    0.0000    0.0000    0.0000 N   0  0
    0.0000    0.0000    0.0000 C   0  0
    0.0000    0.0000    0.0000 S   0  0
    0.0000    0.0000    0.0000 C   0  0
  1  2  1  0
  2  3  2  3
  2  9  1  0
  3  4  1  0
  4  5  1  0
  5  6  2  0
  5  7  1  0
  7  8  1  0
  9 10  1  0
M  END
> <Name>
Methomyl

> <CAS>
016752-77-5

> <VED1>
3.112

> <nHAcc>
4

> <MAXDP>
3.383

> <CIC0>
2.441

> <Log Koc Exp>
1.75

> <Log Koc Pred>
1.15

> <Hat>
0.032

> <Hat Cutoff>
0.161

> <ID Model>
520

> <Smiles>
CC(=NOC(=O)NC)SC

$$$$
Methyl-N-(3,4-dichlorophenyl)carbamate
  SciTegic03251110552D

 13 13  0  0  0  0            999 V2000
    0.0000    0.0000    0.0000 C   0  0
    0.0000    0.0000    0.0000 C   0  0
    0.0000    0.0000    0.0000 C   0  0
    0.0000    0.0000    0.0000 C   0  0
    0.0000    0.0000    0.0000 C   0  0
    0.0000    0.0000    0.0000 C   0  0
    0.0000    0.0000    0.0000 O   0  0
    0.0000    0.0000    0.0000 C   0  0
    0.0000    0.0000    0.0000 O   0  0
    0.0000    0.0000    0.0000 N   0  0
    0.0000    0.0000    0.0000 C   0  0
    0.0000    0.0000    0.0000 Cl  0  0
    0.0000    0.0000    0.0000 Cl  0  0
  1  6  1  0
  1  2  2  3
  1 13  1  0
  2  3  1  0
  2 12  1  0
  3  4  2  3
  4  5  1  0
  4  7  1  0
  5  6  2  3
  7  8  1  0
  8  9  2  0
  8 10  1  0
 10 11  1  0
M  END
> <Name>
Methyl-N-(3,4-dichlorophenyl)carbamate

> <CAS>
018315-50-9

> <VED1>
3.55

> <nHAcc>
3

> <MAXDP>
3.768

> <CIC0>
2.383

> <Log Koc Exp>
2.74

> <Log Koc Pred>
2.31

> <Hat>
0.025

> <Hat Cutoff>
0.161

> <ID Model>
522

> <Smiles>
c1(c(cc(cc1)OC(=O)NC)Cl)Cl

$$$$
Chlorfenvinphos(trans)
  SciTegic03251110552D

 20 20  0  0  0  0            999 V2000
    0.0000    0.0000    0.0000 C   0  0
    0.0000    0.0000    0.0000 O   0  0
    0.0000    0.0000    0.0000 P   0  0
    0.0000    0.0000    0.0000 O   0  0
    0.0000    0.0000    0.0000 O   0  0
    0.0000    0.0000    0.0000 C   0  0
    0.0000    0.0000    0.0000 C   0  0
    0.0000    0.0000    0.0000 Cl  0  0
    0.0000    0.0000    0.0000 C   0  0
    0.0000    0.0000    0.0000 C   0  0
    0.0000    0.0000    0.0000 C   0  0
    0.0000    0.0000    0.0000 C   0  0
    0.0000    0.0000    0.0000 C   0  0
    0.0000    0.0000    0.0000 C   0  0
    0.0000    0.0000    0.0000 Cl  0  0
    0.0000    0.0000    0.0000 Cl  0  0
    0.0000    0.0000    0.0000 O   0  0
    0.0000    0.0000    0.0000 C   0  0
    0.0000    0.0000    0.0000 C   0  0
    0.0000    0.0000    0.0000 C   0  0
  1  2  1  0
  1 20  1  0
  2  3  1  0
  3  4  2  0
  3  5  1  0
  3 17  1  0
  5  6  1  0
  6  7  2  3
  6  9  1  0
  7  8  1  0
  9 14  1  0
  9 10  2  3
 10 11  1  0
 10 16  1  0
 11 12  2  3
 12 13  1  0
 12 15  1  0
 13 14  2  3
 17 18  1  0
 18 19  1  0
M  END
> <Name>
Chlorfenvinphos(trans)

> <CAS>
018708-86-6

> <VED1>
4.398

> <nHAcc>
4

> <MAXDP>
5.299

> <CIC0>
3.208

> <Log Koc Exp>
2.47

> <Log Koc Pred>
3.01

> <Hat>
0.042

> <Hat Cutoff>
0.161

> <ID Model>
524

> <Smiles>
C(OP(=O)(OC(=CCl)c1c(cc(cc1)Cl)Cl)OCC)C

$$$$
Oryzalin
  SciTegic03251110552D

 23 23  0  0  0  0            999 V2000
    0.0000    0.0000    0.0000 C   0  0
    0.0000    0.0000    0.0000 C   0  0
    0.0000    0.0000    0.0000 C   0  0
    0.0000    0.0000    0.0000 C   0  0
    0.0000    0.0000    0.0000 C   0  0
    0.0000    0.0000    0.0000 C   0  0
    0.0000    0.0000    0.0000 N   0  0
    0.0000    0.0000    0.0000 O   0  0
    0.0000    0.0000    0.0000 O   0  0
    0.0000    0.0000    0.0000 N   0  0
    0.0000    0.0000    0.0000 C   0  0
    0.0000    0.0000    0.0000 C   0  0
    0.0000    0.0000    0.0000 C   0  0
    0.0000    0.0000    0.0000 C   0  0
    0.0000    0.0000    0.0000 C   0  0
    0.0000    0.0000    0.0000 C   0  0
    0.0000    0.0000    0.0000 N   0  0
    0.0000    0.0000    0.0000 O   0  0
    0.0000    0.0000    0.0000 O   0  0
    0.0000    0.0000    0.0000 S   0  0
    0.0000    0.0000    0.0000 O   0  0
    0.0000    0.0000    0.0000 O   0  0
    0.0000    0.0000    0.0000 N   0  0
  1  6  1  0
  1  2  2  3
  2  3  1  0
  2 20  1  0
  3  4  2  3
  4  5  1  0
  4 17  1  0
  5  6  2  3
  5 10  1  0
  6  7  1  0
  7  8  1  0
  7  9  1  0
 10 11  1  0
 10 14  1  0
 11 12  1  0
 12 13  1  0
 14 15  1  0
 15 16  1  0
 17 18  1  0
 17 19  1  0
 20 21  2  0
 20 22  2  0
 20 23  1  0
M  END
> <Name>
Oryzalin

> <CAS>
019044-88-3

> <VED1>
4.711

> <nHAcc>
8

> <MAXDP>
4.434

> <CIC0>
3.453

> <Log Koc Exp>
3.08

> <Log Koc Pred>
2.5

> <Hat>
0.081

> <Hat Cutoff>
0.161

> <ID Model>
526

> <Smiles>
c1c(cc(c(c1N(O)O)N(CCC)CCC)N(O)O)S(=O)(=O)N

$$$$
Oxadiazon
  SciTegic03251110552D

 22 23  0  0  0  0            999 V2000
    0.0000    0.0000    0.0000 C   0  0
    0.0000    0.0000    0.0000 C   0  0
    0.0000    0.0000    0.0000 C   0  0
    0.0000    0.0000    0.0000 C   0  0
    0.0000    0.0000    0.0000 C   0  0
    0.0000    0.0000    0.0000 C   0  0
    0.0000    0.0000    0.0000 N   0  0
    0.0000    0.0000    0.0000 N   0  0
    0.0000    0.0000    0.0000 C   0  0
    0.0000    0.0000    0.0000 O   0  0
    0.0000    0.0000    0.0000 C   0  0
    0.0000    0.0000    0.0000 O   0  0
    0.0000    0.0000    0.0000 C   0  0
    0.0000    0.0000    0.0000 C   0  0
    0.0000    0.0000    0.0000 C   0  0
    0.0000    0.0000    0.0000 C   0  0
    0.0000    0.0000    0.0000 Cl  0  0
    0.0000    0.0000    0.0000 Cl  0  0
    0.0000    0.0000    0.0000 O   0  0
    0.0000    0.0000    0.0000 C   0  0
    0.0000    0.0000    0.0000 C   0  0
    0.0000    0.0000    0.0000 C   0  0
  1  6  1  0
  1  2  2  3
  2  3  1  0
  2 19  1  0
  3  4  2  3
  3 18  1  0
  4  5  1  0
  5  6  2  3
  5 17  1  0
  6  7  1  0
  7 11  1  0
  7  8  1  0
  8  9  2  3
  9 10  1  0
  9 13  1  0
 10 11  1  0
 11 12  2  0
 13 14  1  0
 13 15  1  0
 13 16  1  0
 19 20  1  0
 20 21  1  0
 20 22  1  0
M  END
> <Name>
Oxadiazon

> <CAS>
019666-30-9

> <VED1>
4.616

> <nHAcc>
5

> <MAXDP>
5.059

> <CIC0>
3.56

> <Log Koc Exp>
3.51

> <Log Koc Pred>
3.09

> <Hat>
0.031

> <Hat Cutoff>
0.161

> <ID Model>
527

> <Smiles>
c1c(c(cc(c1n1nc(oc1=O)C(C)(C)C)Cl)Cl)OC(C)C

$$$$
Metoxuron
  SciTegic03251110552D

 15 15  0  0  0  0            999 V2000
    0.0000    0.0000    0.0000 C   0  0
    0.0000    0.0000    0.0000 C   0  0
    0.0000    0.0000    0.0000 C   0  0
    0.0000    0.0000    0.0000 C   0  0
    0.0000    0.0000    0.0000 C   0  0
    0.0000    0.0000    0.0000 C   0  0
    0.0000    0.0000    0.0000 O   0  0
    0.0000    0.0000    0.0000 C   0  0
    0.0000    0.0000    0.0000 Cl  0  0
    0.0000    0.0000    0.0000 N   0  0
    0.0000    0.0000    0.0000 C   0  0
    0.0000    0.0000    0.0000 O   0  0
    0.0000    0.0000    0.0000 N   0  0
    0.0000    0.0000    0.0000 C   0  0
    0.0000    0.0000    0.0000 C   0  0
  1  6  1  0
  1  2  2  3
  2  3  1  0
  2 10  1  0
  3  4  2  3
  4  5  1  0
  4  9  1  0
  5  6  2  3
  5  7  1  0
  7  8  1  0
 10 11  1  0
 11 12  2  0
 11 13  1  0
 13 14  1  0
 13 15  1  0
M  END
> <Name>
Metoxuron

> <CAS>
019937-59-8

> <VED1>
3.811

> <nHAcc>
4

> <MAXDP>
4.318

> <CIC0>
3.047

> <Log Koc Exp>
1.72

> <Log Koc Pred>
2.13

> <Hat>
0.017

> <Hat Cutoff>
0.161

> <ID Model>
528

> <Smiles>
c1c(cc(c(c1)OC)Cl)NC(=O)N(C)C

$$$$
Methazole
  SciTegic03251110552D

 16 17  0  0  0  0            999 V2000
    0.0000    0.0000    0.0000 C   0  0
    0.0000    0.0000    0.0000 O   0  0
    0.0000    0.0000    0.0000 N   0  0
    0.0000    0.0000    0.0000 C   0  0
    0.0000    0.0000    0.0000 O   0  0
    0.0000    0.0000    0.0000 O   0  0
    0.0000    0.0000    0.0000 N   0  0
    0.0000    0.0000    0.0000 C   0  0
    0.0000    0.0000    0.0000 C   0  0
    0.0000    0.0000    0.0000 C   0  0
    0.0000    0.0000    0.0000 C   0  0
    0.0000    0.0000    0.0000 C   0  0
    0.0000    0.0000    0.0000 C   0  0
    0.0000    0.0000    0.0000 Cl  0  0
    0.0000    0.0000    0.0000 Cl  0  0
    0.0000    0.0000    0.0000 C   0  0
  1  7  1  0
  1  2  2  0
  1  3  1  0
  3  4  1  0
  3 16  1  0
  4  5  2  0
  4  6  1  0
  6  7  1  0
  7  8  1  0
  8 13  1  0
  8  9  2  3
  9 10  1  0
 10 11  2  3
 11 12  1  0
 11 15  1  0
 12 13  2  3
 12 14  1  0
M  END
> <Name>
Methazole

> <CAS>
020354-26-1

> <VED1>
3.944

> <nHAcc>
5

> <MAXDP>
4.542

> <CIC0>
2.4

> <Log Koc Exp>
3.45

> <Log Koc Pred>
2.22

> <Hat>
0.041

> <Hat Cutoff>
0.161

> <ID Model>
529

> <Smiles>
c1(=O)n(c(=O)on1c1ccc(c(c1)Cl)Cl)C

$$$$
3-(3-Chloro-4-methoxylphenyl)-1-methylurea
  SciTegic03251110552D

 14 14  0  0  0  0            999 V2000
    0.0000    0.0000    0.0000 C   0  0
    0.0000    0.0000    0.0000 C   0  0
    0.0000    0.0000    0.0000 C   0  0
    0.0000    0.0000    0.0000 C   0  0
    0.0000    0.0000    0.0000 C   0  0
    0.0000    0.0000    0.0000 C   0  0
    0.0000    0.0000    0.0000 N   0  0
    0.0000    0.0000    0.0000 C   0  0
    0.0000    0.0000    0.0000 O   0  0
    0.0000    0.0000    0.0000 N   0  0
    0.0000    0.0000    0.0000 C   0  0
    0.0000    0.0000    0.0000 Cl  0  0
    0.0000    0.0000    0.0000 O   0  0
    0.0000    0.0000    0.0000 C   0  0
  1  6  1  0
  1  2  2  3
  2  3  1  0
  3  4  2  3
  3 13  1  0
  4  5  1  0
  4 12  1  0
  5  6  2  3
  6  7  1  0
  7  8  1  0
  8  9  2  0
  8 10  1  0
 10 11  1  0
 13 14  1  0
M  END
> <Name>
3-(3-Chloro-4-methoxylphenyl)-1-methylurea

> <CAS>
020782-57-4

> <VED1>
3.677

> <nHAcc>
4

> <MAXDP>
3.95

> <CIC0>
2.823

> <Log Koc Exp>
1.84

> <Log Koc Pred>
2.04

> <Hat>
0.016

> <Hat Cutoff>
0.161

> <ID Model>
530

> <Smiles>
c1cc(c(cc1NC(=O)NC)Cl)OC

$$$$
3-(3-Chlorophenyl)-1-methylurea
  SciTegic03251110552D

 12 12  0  0  0  0            999 V2000
    0.0000    0.0000    0.0000 C   0  0
    0.0000    0.0000    0.0000 C   0  0
    0.0000    0.0000    0.0000 C   0  0
    0.0000    0.0000    0.0000 C   0  0
    0.0000    0.0000    0.0000 C   0  0
    0.0000    0.0000    0.0000 C   0  0
    0.0000    0.0000    0.0000 N   0  0
    0.0000    0.0000    0.0000 C   0  0
    0.0000    0.0000    0.0000 O   0  0
    0.0000    0.0000    0.0000 N   0  0
    0.0000    0.0000    0.0000 C   0  0
    0.0000    0.0000    0.0000 Cl  0  0
  1  6  1  0
  1  2  2  3
  2  3  1  0
  2 12  1  0
  3  4  2  3
  4  5  1  0
  4  7  1  0
  5  6  2  3
  7  8  1  0
  8  9  2  0
  8 10  1  0
 10 11  1  0
M  END
> <Name>
3-(3-Chlorophenyl)-1-methylurea

> <CAS>
020940-42-5

> <VED1>
3.415

> <nHAcc>
3

> <MAXDP>
3.827

> <CIC0>
2.597

> <Log Koc Exp>
1.93

> <Log Koc Pred>
1.94

> <Hat>
0.019

> <Hat Cutoff>
0.161

> <ID Model>
531

> <Smiles>
c1c(cc(cc1)NC(=O)NC)Cl

$$$$
Metribuzin
  SciTegic03251110552D

 14 14  0  0  0  0            999 V2000
    0.0000    0.0000    0.0000 N   0  0
    0.0000    0.0000    0.0000 N   0  0
    0.0000    0.0000    0.0000 C   0  0
    0.0000    0.0000    0.0000 N   0  0
    0.0000    0.0000    0.0000 C   0  0
    0.0000    0.0000    0.0000 O   0  0
    0.0000    0.0000    0.0000 C   0  0
    0.0000    0.0000    0.0000 C   0  0
    0.0000    0.0000    0.0000 C   0  0
    0.0000    0.0000    0.0000 C   0  0
    0.0000    0.0000    0.0000 C   0  0
    0.0000    0.0000    0.0000 N   0  0
    0.0000    0.0000    0.0000 S   0  0
    0.0000    0.0000    0.0000 C   0  0
  1  7  2  3
  1  2  1  0
  2  3  2  3
  3  4  1  0
  3 13  1  0
  4  5  1  0
  4 12  1  0
  5  6  2  0
  5  7  1  0
  7  8  1  0
  8  9  1  0
  8 10  1  0
  8 11  1  0
 13 14  1  0
M  END
> <Name>
Metribuzin

> <CAS>
021087-64-9

> <VED1>
3.683

> <nHAcc>
5

> <MAXDP>
4.717

> <CIC0>
3.047

> <Log Koc Exp>
1.85

> <Log Koc Pred>
1.4

> <Hat>
0.032

> <Hat Cutoff>
0.161

> <ID Model>
532

> <Smiles>
n1nc(n(c(=O)c1C(C)(C)C)N)SC

$$$$
Leptophos
  SciTegic03251110552D

 20 21  0  0  0  0            999 V2000
    0.0000    0.0000    0.0000 Cl  0  0
    0.0000    0.0000    0.0000 C   0  0
    0.0000    0.0000    0.0000 C   0  0
    0.0000    0.0000    0.0000 O   0  0
    0.0000    0.0000    0.0000 P   0  0
    0.0000    0.0000    0.0000 S   0  0
    0.0000    0.0000    0.0000 C   0  0
    0.0000    0.0000    0.0000 C   0  0
    0.0000    0.0000    0.0000 C   0  0
    0.0000    0.0000    0.0000 C   0  0
    0.0000    0.0000    0.0000 C   0  0
    0.0000    0.0000    0.0000 C   0  0
    0.0000    0.0000    0.0000 O   0  0
    0.0000    0.0000    0.0000 C   0  0
    0.0000    0.0000    0.0000 C   0  0
    0.0000    0.0000    0.0000 C   0  0
    0.0000    0.0000    0.0000 C   0  0
    0.0000    0.0000    0.0000 C   0  0
    0.0000    0.0000    0.0000 Br  0  0
    0.0000    0.0000    0.0000 Cl  0  0
  1  2  1  0
  2 18  1  0
  2  3  2  3
  3  4  1  0
  3 15  1  0
  4  5  1  0
  5  6  2  0
  5  7  1  0
  5 13  1  0
  7 12  1  0
  7  8  2  3
  8  9  1  0
  9 10  2  3
 10 11  1  0
 11 12  2  3
 13 14  1  0
 15 16  2  3
 16 17  1  0
 16 20  1  0
 17 18  2  3
 17 19  1  0
M  END
> <Name>
Leptophos

> <CAS>
021609-90-5

> <VED1>
4.41

> <nHAcc>
2

> <MAXDP>
2.37

> <CIC0>
2.844

> <Log Koc Exp>
4.24

> <Log Koc Pred>
4.73

> <Hat>
0.075

> <Hat Cutoff>
0.161

> <ID Model>
533

> <Smiles>
Clc1c(OP(=S)(c2ccccc2)OC)cc(c(c1)Br)Cl

$$$$
Cyanazine
  SciTegic03251110552D

 16 16  0  0  0  0            999 V2000
    0.0000    0.0000    0.0000 N   0  0
    0.0000    0.0000    0.0000 C   0  0
    0.0000    0.0000    0.0000 N   0  0
    0.0000    0.0000    0.0000 C   0  0
    0.0000    0.0000    0.0000 N   0  0
    0.0000    0.0000    0.0000 C   0  0
    0.0000    0.0000    0.0000 Cl  0  0
    0.0000    0.0000    0.0000 N   0  0
    0.0000    0.0000    0.0000 C   0  0
    0.0000    0.0000    0.0000 C   0  0
    0.0000    0.0000    0.0000 N   0  0
    0.0000    0.0000    0.0000 C   0  0
    0.0000    0.0000    0.0000 C   0  0
    0.0000    0.0000    0.0000 C   0  0
    0.0000    0.0000    0.0000 C   0  0
    0.0000    0.0000    0.0000 N   0  0
  1  6  1  0
  1  2  2  3
  2  3  1  0
  2 11  1  0
  3  4  2  3
  4  5  1  0
  4  8  1  0
  5  6  2  3
  6  7  1  0
  8  9  1  0
  9 10  1  0
 11 12  1  0
 12 13  1  0
 12 14  1  0
 12 15  1  0
 15 16  3  0
M  END
> <Name>
Cyanazine

> <CAS>
021725-46-2

> <VED1>
3.935

> <nHAcc>
6

> <MAXDP>
2.865

> <CIC0>
3.177

> <Log Koc Exp>
2.28

> <Log Koc Pred>
2.12

> <Hat>
0.068

> <Hat Cutoff>
0.161

> <ID Model>
534

> <Smiles>
n1c(nc(nc1Cl)NCC)NC(C)(C)C#N

$$$$
3-(3-Chloro-4-methylphenyl)-1-methylurea
  SciTegic03251110552D

 13 13  0  0  0  0            999 V2000
    0.0000    0.0000    0.0000 C   0  0
    0.0000    0.0000    0.0000 C   0  0
    0.0000    0.0000    0.0000 C   0  0
    0.0000    0.0000    0.0000 C   0  0
    0.0000    0.0000    0.0000 C   0  0
    0.0000    0.0000    0.0000 C   0  0
    0.0000    0.0000    0.0000 Cl  0  0
    0.0000    0.0000    0.0000 C   0  0
    0.0000    0.0000    0.0000 N   0  0
    0.0000    0.0000    0.0000 C   0  0
    0.0000    0.0000    0.0000 O   0  0
    0.0000    0.0000    0.0000 N   0  0
    0.0000    0.0000    0.0000 C   0  0
  1  6  1  0
  1  2  2  3
  2  3  1  0
  2  9  1  0
  3  4  2  3
  4  5  1  0
  5  6  2  3
  5  8  1  0
  6  7  1  0
  9 10  1  0
 10 11  2  0
 10 12  1  0
 12 13  1  0
M  END
> <Name>
3-(3-Chloro-4-methylphenyl)-1-methylurea

> <CAS>
022175-22-0

> <VED1>
3.55

> <nHAcc>
3

> <MAXDP>
3.912

> <CIC0>
2.858

> <Log Koc Exp>
2.1

> <Log Koc Pred>
2.11

> <Hat>
0.016

> <Hat Cutoff>
0.161

> <ID Model>
535

> <Smiles>
c1c(ccc(c1Cl)C)NC(=O)NC

$$$$
Bendiocarb
  SciTegic03251110552D

 16 17  0  0  0  0            999 V2000
    0.0000    0.0000    0.0000 C   0  0
    0.0000    0.0000    0.0000 C   0  0
    0.0000    0.0000    0.0000 C   0  0
    0.0000    0.0000    0.0000 C   0  0
    0.0000    0.0000    0.0000 C   0  0
    0.0000    0.0000    0.0000 C   0  0
    0.0000    0.0000    0.0000 O   0  0
    0.0000    0.0000    0.0000 C   0  0
    0.0000    0.0000    0.0000 O   0  0
    0.0000    0.0000    0.0000 C   0  0
    0.0000    0.0000    0.0000 C   0  0
    0.0000    0.0000    0.0000 O   0  0
    0.0000    0.0000    0.0000 C   0  0
    0.0000    0.0000    0.0000 O   0  0
    0.0000    0.0000    0.0000 N   0  0
    0.0000    0.0000    0.0000 C   0  0
  1  6  1  0
  1  2  2  3
  1 12  1  0
  2  3  1  0
  3  4  2  3
  4  5  1  0
  5  9  1  0
  5  6  2  3
  6  7  1  0
  7  8  1  0
  8  9  1  0
  8 10  1  0
  8 11  1  0
 12 13  1  0
 13 14  2  0
 13 15  1  0
 15 16  1  0
M  END
> <Name>
Bendiocarb

> <CAS>
022781-23-3

> <VED1>
3.938

> <nHAcc>
5

> <MAXDP>
4.113

> <CIC0>
3.247

> <Log Koc Exp>
2.75

> <Log Koc Pred>
2.06

> <Hat>
0.024

> <Hat Cutoff>
0.161

> <ID Model>
537

> <Smiles>
c1(cccc2c1OC(O2)(C)C)OC(=O)NC

$$$$
Pirimicarb(=Pirimor)
  SciTegic03251110552D

 17 17  0  0  0  0            999 V2000
    0.0000    0.0000    0.0000 C   0  0
    0.0000    0.0000    0.0000 N   0  0
    0.0000    0.0000    0.0000 C   0  0
    0.0000    0.0000    0.0000 C   0  0
    0.0000    0.0000    0.0000 O   0  0
    0.0000    0.0000    0.0000 O   0  0
    0.0000    0.0000    0.0000 C   0  0
    0.0000    0.0000    0.0000 N   0  0
    0.0000    0.0000    0.0000 C   0  0
    0.0000    0.0000    0.0000 N   0  0
    0.0000    0.0000    0.0000 C   0  0
    0.0000    0.0000    0.0000 C   0  0
    0.0000    0.0000    0.0000 C   0  0
    0.0000    0.0000    0.0000 C   0  0
    0.0000    0.0000    0.0000 N   0  0
    0.0000    0.0000    0.0000 C   0  0
    0.0000    0.0000    0.0000 C   0  0
  1  2  1  0
  2  3  1  0
  2  4  1  0
  4  5  2  0
  4  6  1  0
  6  7  1  0
  7 12  1  0
  7  8  2  3
  8  9  1  0
  9 10  2  3
  9 15  1  0
 10 11  1  0
 11 12  2  3
 11 14  1  0
 12 13  1  0
 15 16  1  0
 15 17  1  0
M  END
> <Name>
Pirimicarb(=Pirimor)

> <CAS>
023103-98-2

> <VED1>
4.06

> <nHAcc>
6

> <MAXDP>
4.487

> <CIC0>
3.517

> <Log Koc Exp>
2.13

> <Log Koc Pred>
1.77

> <Hat>
0.044

> <Hat Cutoff>
0.161

> <ID Model>
538

> <Smiles>
CN(C)C(=O)Oc1nc(nc(c1C)C)N(C)C

$$$$
Butachlor
  SciTegic03251110552D

 21 21  0  0  0  0            999 V2000
    0.0000    0.0000    0.0000 C   0  0
    0.0000    0.0000    0.0000 C   0  0
    0.0000    0.0000    0.0000 C   0  0
    0.0000    0.0000    0.0000 C   0  0
    0.0000    0.0000    0.0000 C   0  0
    0.0000    0.0000    0.0000 C   0  0
    0.0000    0.0000    0.0000 C   0  0
    0.0000    0.0000    0.0000 C   0  0
    0.0000    0.0000    0.0000 N   0  0
    0.0000    0.0000    0.0000 C   0  0
    0.0000    0.0000    0.0000 O   0  0
    0.0000    0.0000    0.0000 C   0  0
    0.0000    0.0000    0.0000 C   0  0
    0.0000    0.0000    0.0000 C   0  0
    0.0000    0.0000    0.0000 C   0  0
    0.0000    0.0000    0.0000 C   0  0
    0.0000    0.0000    0.0000 O   0  0
    0.0000    0.0000    0.0000 C   0  0
    0.0000    0.0000    0.0000 Cl  0  0
    0.0000    0.0000    0.0000 C   0  0
    0.0000    0.0000    0.0000 C   0  0
  1  6  1  0
  1  2  2  3
  2  3  1  0
  3  4  2  3
  4  5  1  0
  4 20  1  0
  5  6  2  3
  5  9  1  0
  6  7  1  0
  7  8  1  0
  9 10  1  0
  9 16  1  0
 10 11  1  0
 11 12  1  0
 12 13  1  0
 13 14  1  0
 14 15  1  0
 16 17  2  0
 16 18  1  0
 18 19  1  0
 20 21  1  0
M  END
> <Name>
Butachlor

> <CAS>
023184-66-9

> <VED1>
4.494

> <nHAcc>
3

> <MAXDP>
5.226

> <CIC0>
4.121

> <Log Koc Exp>
3.08

> <Log Koc Pred>
3.27

> <Hat>
0.06

> <Hat Cutoff>
0.161

> <ID Model>
540

> <Smiles>
c1ccc(c(c1CC)N(COCCCC)C(=O)CCl)CC

$$$$
Thiophanate-methyl
  SciTegic03251110552D

 22 22  0  0  0  0            999 V2000
    0.0000    0.0000    0.0000 C   0  0
    0.0000    0.0000    0.0000 C   0  0
    0.0000    0.0000    0.0000 C   0  0
    0.0000    0.0000    0.0000 C   0  0
    0.0000    0.0000    0.0000 C   0  0
    0.0000    0.0000    0.0000 C   0  0
    0.0000    0.0000    0.0000 N   0  0
    0.0000    0.0000    0.0000 C   0  0
    0.0000    0.0000    0.0000 S   0  0
    0.0000    0.0000    0.0000 N   0  0
    0.0000    0.0000    0.0000 C   0  0
    0.0000    0.0000    0.0000 O   0  0
    0.0000    0.0000    0.0000 O   0  0
    0.0000    0.0000    0.0000 C   0  0
    0.0000    0.0000    0.0000 N   0  0
    0.0000    0.0000    0.0000 C   0  0
    0.0000    0.0000    0.0000 S   0  0
    0.0000    0.0000    0.0000 N   0  0
    0.0000    0.0000    0.0000 C   0  0
    0.0000    0.0000    0.0000 O   0  0
    0.0000    0.0000    0.0000 O   0  0
    0.0000    0.0000    0.0000 C   0  0
  1  6  1  0
  1  2  2  3
  2  3  1  0
  3  4  2  3
  3 15  1  0
  4  5  1  0
  4  7  1  0
  5  6  2  3
  7  8  1  0
  8  9  2  0
  8 10  1  0
 10 11  1  0
 11 12  2  0
 11 13  1  0
 13 14  1  0
 15 16  1  0
 16 17  2  0
 16 18  1  0
 18 19  1  0
 19 20  2  0
 19 21  1  0
 21 22  1  0
M  END
> <Name>
Thiophanate-methyl

> <CAS>
023564-05-8

> <VED1>
4.61

> <nHAcc>
8

> <MAXDP>
4.071

> <CIC0>
3.176

> <Log Koc Exp>
3.25

> <Log Koc Pred>
2.49

> <Hat>
0.091

> <Hat Cutoff>
0.161

> <ID Model>
541

> <Smiles>
c1cc(c(cc1)NC(=S)NC(=O)OC)NC(=S)NC(=O)OC

$$$$
Bentazon
  SciTegic03251110552D

 16 17  0  0  0  0            999 V2000
    0.0000    0.0000    0.0000 C   0  0
    0.0000    0.0000    0.0000 C   0  0
    0.0000    0.0000    0.0000 C   0  0
    0.0000    0.0000    0.0000 C   0  0
    0.0000    0.0000    0.0000 C   0  0
    0.0000    0.0000    0.0000 C   0  0
    0.0000    0.0000    0.0000 N   0  0
    0.0000    0.0000    0.0000 S   0  0
    0.0000    0.0000    0.0000 O   0  0
    0.0000    0.0000    0.0000 O   0  0
    0.0000    0.0000    0.0000 N   0  0
    0.0000    0.0000    0.0000 C   0  0
    0.0000    0.0000    0.0000 O   0  0
    0.0000    0.0000    0.0000 C   0  0
    0.0000    0.0000    0.0000 C   0  0
    0.0000    0.0000    0.0000 C   0  0
  1  6  1  0
  1  2  2  3
  2  3  1  0
  3  4  2  3
  4 12  1  0
  4  5  1  0
  5  6  2  3
  5  7  1  0
  7  8  1  0
  8  9  2  0
  8 10  2  0
  8 11  1  0
 11 12  1  0
 11 14  1  0
 12 13  2  0
 14 15  1  0
 14 16  1  0
M  END
> <Name>
Bentazon

> <CAS>
025057-89-0

> <VED1>
3.947

> <nHAcc>
5

> <MAXDP>
4.981

> <CIC0>
2.964

> <Log Koc Exp>
1.52

> <Log Koc Pred>
1.9

> <Hat>
0.027

> <Hat Cutoff>
0.161

> <ID Model>
544

> <Smiles>
c1ccc2c(c1)NS(=O)(=O)N(C2=O)C(C)C

$$$$
Isofenphos
  SciTegic03251110552D

 22 22  0  0  0  0            999 V2000
    0.0000    0.0000    0.0000 S   0  0
    0.0000    0.0000    0.0000 P   0  0
    0.0000    0.0000    0.0000 O   0  0
    0.0000    0.0000    0.0000 C   0  0
    0.0000    0.0000    0.0000 C   0  0
    0.0000    0.0000    0.0000 C   0  0
    0.0000    0.0000    0.0000 O   0  0
    0.0000    0.0000    0.0000 O   0  0
    0.0000    0.0000    0.0000 C   0  0
    0.0000    0.0000    0.0000 C   0  0
    0.0000    0.0000    0.0000 C   0  0
    0.0000    0.0000    0.0000 C   0  0
    0.0000    0.0000    0.0000 C   0  0
    0.0000    0.0000    0.0000 C   0  0
    0.0000    0.0000    0.0000 C   0  0
    0.0000    0.0000    0.0000 N   0  0
    0.0000    0.0000    0.0000 C   0  0
    0.0000    0.0000    0.0000 C   0  0
    0.0000    0.0000    0.0000 C   0  0
    0.0000    0.0000    0.0000 O   0  0
    0.0000    0.0000    0.0000 C   0  0
    0.0000    0.0000    0.0000 C   0  0
  1  2  2  0
  2  3  1  0
  2 16  1  0
  2 20  1  0
  3  4  1  0
  4 15  1  0
  4  5  2  3
  5  6  1  0
  5 12  1  0
  6  7  2  0
  6  8  1  0
  8  9  1  0
  9 10  1  0
  9 11  1  0
 12 13  2  3
 13 14  1  0
 14 15  2  3
 16 17  1  0
 17 18  1  0
 17 19  1  0
 20 21  1  0
 21 22  1  0
M  END
> <Name>
Isofenphos

> <CAS>
025311-71-1

> <VED1>
4.613

> <nHAcc>
5

> <MAXDP>
5.157

> <CIC0>
3.84

> <Log Koc Exp>
2.76

> <Log Koc Pred>
2.96

> <Hat>
0.033

> <Hat Cutoff>
0.161

> <ID Model>
546

> <Smiles>
S=P(Oc1c(C(=O)OC(C)C)cccc1)(NC(C)C)OCC

$$$$
Iprobenfos
  SciTegic03251110552D

 18 18  0  0  0  0            999 V2000
    0.0000    0.0000    0.0000 C   0  0
    0.0000    0.0000    0.0000 C   0  0
    0.0000    0.0000    0.0000 C   0  0
    0.0000    0.0000    0.0000 C   0  0
    0.0000    0.0000    0.0000 C   0  0
    0.0000    0.0000    0.0000 C   0  0
    0.0000    0.0000    0.0000 C   0  0
    0.0000    0.0000    0.0000 S   0  0
    0.0000    0.0000    0.0000 P   0  0
    0.0000    0.0000    0.0000 O   0  0
    0.0000    0.0000    0.0000 O   0  0
    0.0000    0.0000    0.0000 C   0  0
    0.0000    0.0000    0.0000 C   0  0
    0.0000    0.0000    0.0000 C   0  0
    0.0000    0.0000    0.0000 O   0  0
    0.0000    0.0000    0.0000 C   0  0
    0.0000    0.0000    0.0000 C   0  0
    0.0000    0.0000    0.0000 C   0  0
  1  6  1  0
  1  2  2  3
  2  3  1  0
  3  4  2  3
  4  5  1  0
  5  6  2  3
  5  7  1  0
  7  8  1  0
  8  9  1  0
  9 10  2  0
  9 11  1  0
  9 15  1  0
 11 12  1  0
 12 13  1  0
 12 14  1  0
 15 16  1  0
 16 17  1  0
 16 18  1  0
M  END
> <Name>
Iprobenfos

> <CAS>
026087-47-8

> <VED1>
4.178

> <nHAcc>
3

> <MAXDP>
5.526

> <CIC0>
3.72

> <Log Koc Exp>
2.4

> <Log Koc Pred>
2.65

> <Hat>
0.06

> <Hat Cutoff>
0.161

> <ID Model>
547

> <Smiles>
c1cccc(c1)CSP(=O)(OC(C)C)OC(C)C

$$$$
Ethofumesate
  SciTegic03251110552D

 20 21  0  0  0  0            999 V2000
    0.0000    0.0000    0.0000 C   0  0
    0.0000    0.0000    0.0000 C   0  0
    0.0000    0.0000    0.0000 C   0  0
    0.0000    0.0000    0.0000 C   0  0
    0.0000    0.0000    0.0000 C   0  0
    0.0000    0.0000    0.0000 C   0  0
    0.0000    0.0000    0.0000 C   0  0
    0.0000    0.0000    0.0000 C   0  0
    0.0000    0.0000    0.0000 H   0  0
    0.0000    0.0000    0.0000 O   0  0
    0.0000    0.0000    0.0000 O   0  0
    0.0000    0.0000    0.0000 C   0  0
    0.0000    0.0000    0.0000 C   0  0
    0.0000    0.0000    0.0000 C   0  0
    0.0000    0.0000    0.0000 C   0  0
    0.0000    0.0000    0.0000 O   0  0
    0.0000    0.0000    0.0000 S   0  0
    0.0000    0.0000    0.0000 O   0  0
    0.0000    0.0000    0.0000 O   0  0
    0.0000    0.0000    0.0000 C   0  0
  1  6  1  0
  1 10  1  0
  1  2  2  3
  2  3  1  0
  3  4  2  3
  4  5  1  0
  4 16  1  0
  5  6  2  3
  6  7  1  0
  7  8  1  0
  7 14  1  0
  7 15  1  0
  8  9  1  0
  8 10  1  0
  8 11  1  0
 11 12  1  0
 12 13  1  0
 16 17  1  0
 17 18  2  0
 17 19  2  0
 17 20  1  0
M  END
> <Name>
Ethofumesate

> <CAS>
026225-79-6

> <VED1>
4.283

> <nHAcc>
5

> <MAXDP>
4.151

> <CIC0>
3.643

> <Log Koc Exp>
2.05

> <Log Koc Pred>
2.64

> <Hat>
0.026

> <Hat Cutoff>
0.161

> <ID Model>
548

> <Smiles>
c12ccc(cc1C([C@@H](O2)OCC)(C)C)OS(=O)(=O)C

$$$$
Secbumeton
  SciTegic03251110552D

 17 17  0  0  0  0            999 V2000
    0.0000    0.0000    0.0000 N   0  0
    0.0000    0.0000    0.0000 C   0  0
    0.0000    0.0000    0.0000 N   0  0
    0.0000    0.0000    0.0000 C   0  0
    0.0000    0.0000    0.0000 N   0  0
    0.0000    0.0000    0.0000 C   0  0
    0.0000    0.0000    0.0000 O   0  0
    0.0000    0.0000    0.0000 C   0  0
    0.0000    0.0000    0.0000 N   0  0
    0.0000    0.0000    0.0000 C   0  0
    0.0000    0.0000    0.0000 C   0  0
    0.0000    0.0000    0.0000 N   0  0
    0.0000    0.0000    0.0000 C   0  0
    0.0000    0.0000    0.0000 H   0  0
    0.0000    0.0000    0.0000 C   0  0
    0.0000    0.0000    0.0000 C   0  0
    0.0000    0.0000    0.0000 C   0  0
  1  6  1  0
  1  2  2  3
  2  3  1  0
  2 12  1  0
  3  4  2  3
  4  5  1  0
  4  9  1  0
  5  6  2  3
  6  7  1  0
  7  8  1  0
  9 10  1  0
 10 11  1  0
 12 13  1  0
 13 14  1  0
 13 15  1  0
 13 17  1  0
 15 16  1  0
M  END
> <Name>
Secbumeton

> <CAS>
026259-45-0

> <VED1>
3.926

> <nHAcc>
6

> <MAXDP>
1.515

> <CIC0>
3.587

> <Log Koc Exp>
2.78

> <Log Koc Pred>
2.38

> <Hat>
0.152

> <Hat Cutoff>
0.161

> <ID Model>
549

> <Smiles>
n1c(nc(nc1OC)NCC)N[C@@H](CC)C

$$$$
Chlornidine
  SciTegic03251110552D

 20 20  0  0  0  0            999 V2000
    0.0000    0.0000    0.0000 C   0  0
    0.0000    0.0000    0.0000 C   0  0
    0.0000    0.0000    0.0000 C   0  0
    0.0000    0.0000    0.0000 C   0  0
    0.0000    0.0000    0.0000 C   0  0
    0.0000    0.0000    0.0000 C   0  0
    0.0000    0.0000    0.0000 C   0  0
    0.0000    0.0000    0.0000 N   0  0
    0.0000    0.0000    0.0000 O   0  0
    0.0000    0.0000    0.0000 O   0  0
    0.0000    0.0000    0.0000 N   0  0
    0.0000    0.0000    0.0000 C   0  0
    0.0000    0.0000    0.0000 C   0  0
    0.0000    0.0000    0.0000 Cl  0  0
    0.0000    0.0000    0.0000 C   0  0
    0.0000    0.0000    0.0000 C   0  0
    0.0000    0.0000    0.0000 Cl  0  0
    0.0000    0.0000    0.0000 N   0  0
    0.0000    0.0000    0.0000 O   0  0
    0.0000    0.0000    0.0000 O   0  0
  1  6  1  0
  1  2  2  3
  2  3  1  0
  2 18  1  0
  3  4  2  3
  3 11  1  0
  4  5  1  0
  4  8  1  0
  5  6  2  3
  6  7  1  0
  8  9  1  0
  8 10  1  0
 11 12  1  0
 11 15  1  0
 12 13  1  0
 13 14  1  0
 15 16  1  0
 16 17  1  0
 18 19  1  0
 18 20  1  0
M  END
> <Name>
Chlornidine

> <CAS>
026389-78-6

> <VED1>
4.393

> <nHAcc>
5

> <MAXDP>
4.152

> <CIC0>
3.058

> <Log Koc Exp>
3.94

> <Log Koc Pred>
3.06

> <Hat>
0.029

> <Hat Cutoff>
0.161

> <ID Model>
550

> <Smiles>
c1c(c(c(cc1C)N(O)O)N(CCCl)CCCl)N(O)O

$$$$
Profluralin
  SciTegic03251110552D

 24 25  0  0  0  0            999 V2000
    0.0000    0.0000    0.0000 C   0  0
    0.0000    0.0000    0.0000 C   0  0
    0.0000    0.0000    0.0000 C   0  0
    0.0000    0.0000    0.0000 C   0  0
    0.0000    0.0000    0.0000 C   0  0
    0.0000    0.0000    0.0000 C   0  0
    0.0000    0.0000    0.0000 N   0  0
    0.0000    0.0000    0.0000 O   0  0
    0.0000    0.0000    0.0000 O   0  0
    0.0000    0.0000    0.0000 N   0  0
    0.0000    0.0000    0.0000 C   0  0
    0.0000    0.0000    0.0000 C   0  0
    0.0000    0.0000    0.0000 C   0  0
    0.0000    0.0000    0.0000 C   0  0
    0.0000    0.0000    0.0000 C   0  0
    0.0000    0.0000    0.0000 C   0  0
    0.0000    0.0000    0.0000 C   0  0
    0.0000    0.0000    0.0000 N   0  0
    0.0000    0.0000    0.0000 O   0  0
    0.0000    0.0000    0.0000 O   0  0
    0.0000    0.0000    0.0000 C   0  0
    0.0000    0.0000    0.0000 F   0  0
    0.0000    0.0000    0.0000 F   0  0
    0.0000    0.0000    0.0000 F   0  0
  1  6  1  0
  1  2  2  3
  2  3  1  0
  2 21  1  0
  3  4  2  3
  4  5  1  0
  4 18  1  0
  5  6  2  3
  5 10  1  0
  6  7  1  0
  7  8  1  0
  7  9  1  0
 10 11  1  0
 10 15  1  0
 11 12  1  0
 12 14  1  0
 12 13  1  0
 13 14  1  0
 15 16  1  0
 16 17  1  0
 18 19  1  0
 18 20  1  0
 21 22  1  0
 21 23  1  0
 21 24  1  0
M  END
> <Name>
Profluralin

> <CAS>
026399-36-0

> <VED1>
4.816

> <nHAcc>
8

> <MAXDP>
4.917

> <CIC0>
3.37

> <Log Koc Exp>
4.01

> <Log Koc Pred>
2.6

> <Hat>
0.073

> <Hat Cutoff>
0.161

> <ID Model>
551

> <Smiles>
c1c(cc(c(c1N(O)O)N(CC1CC1)CCC)N(O)O)C(F)(F)F

$$$$
Norflurazon
  SciTegic03251110552D

 20 21  0  0  0  0            999 V2000
    0.0000    0.0000    0.0000 N   0  0
    0.0000    0.0000    0.0000 N   0  0
    0.0000    0.0000    0.0000 C   0  0
    0.0000    0.0000    0.0000 O   0  0
    0.0000    0.0000    0.0000 C   0  0
    0.0000    0.0000    0.0000 C   0  0
    0.0000    0.0000    0.0000 C   0  0
    0.0000    0.0000    0.0000 N   0  0
    0.0000    0.0000    0.0000 C   0  0
    0.0000    0.0000    0.0000 Cl  0  0
    0.0000    0.0000    0.0000 C   0  0
    0.0000    0.0000    0.0000 C   0  0
    0.0000    0.0000    0.0000 C   0  0
    0.0000    0.0000    0.0000 C   0  0
    0.0000    0.0000    0.0000 C   0  0
    0.0000    0.0000    0.0000 C   0  0
    0.0000    0.0000    0.0000 C   0  0
    0.0000    0.0000    0.0000 F   0  0
    0.0000    0.0000    0.0000 F   0  0
    0.0000    0.0000    0.0000 F   0  0
  1  7  2  3
  1  2  1  0
  2  3  1  0
  2 11  1  0
  3  4  2  0
  3  5  1  0
  5  6  2  3
  5 10  1  0
  6  7  1  0
  6  8  1  0
  8  9  1  0
 11 16  1  0
 11 12  2  3
 12 13  1  0
 13 14  2  3
 13 17  1  0
 14 15  1  0
 15 16  2  3
 17 18  1  0
 17 19  1  0
 17 20  1  0
M  END
> <Name>
Norflurazon

> <CAS>
027314-13-2

> <VED1>
4.407

> <nHAcc>
7

> <MAXDP>
4.957

> <CIC0>
2.795

> <Log Koc Exp>
3.28

> <Log Koc Pred>
2.25

> <Hat>
0.056

> <Hat Cutoff>
0.161

> <ID Model>
553

> <Smiles>
n1n(c(=O)c(c(c1)NC)Cl)c1cc(ccc1)C(F)(F)F

$$$$
3-(3-Methoxyphenyl)-1,1-dimethylurea
  SciTegic03251110552D

 14 14  0  0  0  0            999 V2000
    0.0000    0.0000    0.0000 C   0  0
    0.0000    0.0000    0.0000 N   0  0
    0.0000    0.0000    0.0000 C   0  0
    0.0000    0.0000    0.0000 C   0  0
    0.0000    0.0000    0.0000 O   0  0
    0.0000    0.0000    0.0000 N   0  0
    0.0000    0.0000    0.0000 C   0  0
    0.0000    0.0000    0.0000 C   0  0
    0.0000    0.0000    0.0000 C   0  0
    0.0000    0.0000    0.0000 C   0  0
    0.0000    0.0000    0.0000 C   0  0
    0.0000    0.0000    0.0000 C   0  0
    0.0000    0.0000    0.0000 O   0  0
    0.0000    0.0000    0.0000 C   0  0
  1  2  1  0
  2  3  1  0
  2  4  1  0
  4  5  2  0
  4  6  1  0
  6  7  1  0
  7 12  1  0
  7  8  2  3
  8  9  1  0
  9 10  2  3
 10 11  1  0
 11 12  2  3
 11 13  1  0
 13 14  1  0
M  END
> <Name>
3-(3-Methoxyphenyl)-1,1-dimethylurea

> <CAS>
028170-54-9

> <VED1>
3.687

> <nHAcc>
4

> <MAXDP>
4.286

> <CIC0>
3.233

> <Log Koc Exp>
1.72

> <Log Koc Pred>
1.82

> <Hat>
0.024

> <Hat Cutoff>
0.161

> <ID Model>
554

> <Smiles>
CN(C)C(=O)Nc1cccc(c1)OC

$$$$
Thiobencarb
  SciTegic03251110552D

 16 16  0  0  0  0            999 V2000
    0.0000    0.0000    0.0000 C   0  0
    0.0000    0.0000    0.0000 C   0  0
    0.0000    0.0000    0.0000 C   0  0
    0.0000    0.0000    0.0000 C   0  0
    0.0000    0.0000    0.0000 S   0  0
    0.0000    0.0000    0.0000 C   0  0
    0.0000    0.0000    0.0000 O   0  0
    0.0000    0.0000    0.0000 N   0  0
    0.0000    0.0000    0.0000 C   0  0
    0.0000    0.0000    0.0000 C   0  0
    0.0000    0.0000    0.0000 C   0  0
    0.0000    0.0000    0.0000 C   0  0
    0.0000    0.0000    0.0000 C   0  0
    0.0000    0.0000    0.0000 C   0  0
    0.0000    0.0000    0.0000 C   0  0
    0.0000    0.0000    0.0000 Cl  0  0
  1 15  1  0
  1  2  2  3
  2  3  1  0
  3  4  1  0
  3 13  2  3
  4  5  1  0
  5  6  1  0
  6  7  2  0
  6  8  1  0
  8  9  1  0
  8 11  1  0
  9 10  1  0
 11 12  1  0
 13 14  1  0
 14 15  2  3
 15 16  1  0
M  END
> <Name>
Thiobencarb

> <CAS>
028249-77-6

> <VED1>
3.942

> <nHAcc>
2

> <MAXDP>
4.708

> <CIC0>
3.344

> <Log Koc Exp>
3.27

> <Log Koc Pred>
2.86

> <Hat>
0.046

> <Hat Cutoff>
0.161

> <ID Model>
555

> <Smiles>
c1cc(CSC(=O)N(CC)CC)ccc1Cl

$$$$
Dinitramine
  SciTegic03251110552D

 22 22  0  0  0  0            999 V2000
    0.0000    0.0000    0.0000 C   0  0
    0.0000    0.0000    0.0000 C   0  0
    0.0000    0.0000    0.0000 C   0  0
    0.0000    0.0000    0.0000 C   0  0
    0.0000    0.0000    0.0000 C   0  0
    0.0000    0.0000    0.0000 C   0  0
    0.0000    0.0000    0.0000 N   0  0
    0.0000    0.0000    0.0000 O   0  0
    0.0000    0.0000    0.0000 O   0  0
    0.0000    0.0000    0.0000 N   0  0
    0.0000    0.0000    0.0000 C   0  0
    0.0000    0.0000    0.0000 C   0  0
    0.0000    0.0000    0.0000 C   0  0
    0.0000    0.0000    0.0000 C   0  0
    0.0000    0.0000    0.0000 N   0  0
    0.0000    0.0000    0.0000 O   0  0
    0.0000    0.0000    0.0000 O   0  0
    0.0000    0.0000    0.0000 C   0  0
    0.0000    0.0000    0.0000 F   0  0
    0.0000    0.0000    0.0000 F   0  0
    0.0000    0.0000    0.0000 F   0  0
    0.0000    0.0000    0.0000 N   0  0
  1  6  1  0
  1  2  2  3
  1 22  1  0
  2  3  1  0
  2 18  1  0
  3  4  2  3
  4  5  1  0
  4 15  1  0
  5  6  2  3
  5 10  1  0
  6  7  1  0
  7  8  1  0
  7  9  1  0
 10 11  1  0
 10 13  1  0
 11 12  1  0
 13 14  1  0
 15 16  1  0
 15 17  1  0
 18 19  1  0
 18 20  1  0
 18 21  1  0
M  END
> <Name>
Dinitramine

> <CAS>
029091-05-2

> <VED1>
4.615

> <nHAcc>
9

> <MAXDP>
4.893

> <CIC0>
3.055

> <Log Koc Exp>
3.63

> <Log Koc Pred>
1.95

> <Hat>
0.105

> <Hat Cutoff>
0.161

> <ID Model>
556

> <Smiles>
c1(c(cc(c(c1N(O)O)N(CC)CC)N(O)O)C(F)(F)F)N

$$$$
Pirimiphos-methyl
  SciTegic03251110552D

 19 19  0  0  0  0            999 V2000
    0.0000    0.0000    0.0000 C   0  0
    0.0000    0.0000    0.0000 O   0  0
    0.0000    0.0000    0.0000 P   0  0
    0.0000    0.0000    0.0000 S   0  0
    0.0000    0.0000    0.0000 O   0  0
    0.0000    0.0000    0.0000 C   0  0
    0.0000    0.0000    0.0000 O   0  0
    0.0000    0.0000    0.0000 C   0  0
    0.0000    0.0000    0.0000 N   0  0
    0.0000    0.0000    0.0000 C   0  0
    0.0000    0.0000    0.0000 N   0  0
    0.0000    0.0000    0.0000 C   0  0
    0.0000    0.0000    0.0000 C   0  0
    0.0000    0.0000    0.0000 C   0  0
    0.0000    0.0000    0.0000 N   0  0
    0.0000    0.0000    0.0000 C   0  0
    0.0000    0.0000    0.0000 C   0  0
    0.0000    0.0000    0.0000 C   0  0
    0.0000    0.0000    0.0000 C   0  0
  1  2  1  0
  2  3  1  0
  3  4  2  0
  3  5  1  0
  3  7  1  0
  5  6  1  0
  7  8  1  0
  8 13  1  0
  8  9  2  3
  9 10  1  0
 10 11  2  3
 10 15  1  0
 11 12  1  0
 12 13  2  3
 12 14  1  0
 15 16  1  0
 15 18  1  0
 16 17  1  0
 18 19  1  0
M  END
> <Name>
Pirimiphos-methyl

> <CAS>
029232-93-7

> <VED1>
4.292

> <nHAcc>
6

> <MAXDP>
2.065

> <CIC0>
3.436

> <Log Koc Exp>
3

> <Log Koc Pred>
3.03

> <Hat>
0.103

> <Hat Cutoff>
0.161

> <ID Model>
557

> <Smiles>
COP(=S)(OC)Oc1nc(nc(c1)C)N(CC)CC

$$$$
3-Chloro-4-bromonitrobenzene
  SciTegic03251110552D

 11 11  0  0  0  0            999 V2000
    0.0000    0.0000    0.0000 C   0  0
    0.0000    0.0000    0.0000 C   0  0
    0.0000    0.0000    0.0000 C   0  0
    0.0000    0.0000    0.0000 C   0  0
    0.0000    0.0000    0.0000 C   0  0
    0.0000    0.0000    0.0000 C   0  0
    0.0000    0.0000    0.0000 N   0  0
    0.0000    0.0000    0.0000 O   0  0
    0.0000    0.0000    0.0000 O   0  0
    0.0000    0.0000    0.0000 Cl  0  0
    0.0000    0.0000    0.0000 Br  0  0
  1  6  1  0
  1  2  2  3
  1 11  1  0
  2  3  1  0
  2 10  1  0
  3  4  2  3
  4  5  1  0
  4  7  1  0
  5  6  2  3
  7  8  1  0
  7  9  1  0
M  END
> <Name>
3-Chloro-4-bromonitrobenzene

> <CAS>
029682-39-1

> <VED1>
3.269

> <nHAcc>
2

> <MAXDP>
3.196

> <CIC0>
1.59

> <Log Koc Exp>
2.6

> <Log Koc Pred>
2.49

> <Hat>
0.074

> <Hat Cutoff>
0.161

> <ID Model>
558

> <Smiles>
c1(c(cc(cc1)N(O)O)Cl)Br

$$$$
Fenamiphos Sulfone
  SciTegic03251110552D

 21 21  0  0  0  0            999 V2000
    0.0000    0.0000    0.0000 O   0  0
    0.0000    0.0000    0.0000 P   0  0
    0.0000    0.0000    0.0000 O   0  0
    0.0000    0.0000    0.0000 C   0  0
    0.0000    0.0000    0.0000 C   0  0
    0.0000    0.0000    0.0000 C   0  0
    0.0000    0.0000    0.0000 C   0  0
    0.0000    0.0000    0.0000 C   0  0
    0.0000    0.0000    0.0000 C   0  0
    0.0000    0.0000    0.0000 S   0  0
    0.0000    0.0000    0.0000 O   0  0
    0.0000    0.0000    0.0000 O   0  0
    0.0000    0.0000    0.0000 C   0  0
    0.0000    0.0000    0.0000 C   0  0
    0.0000    0.0000    0.0000 O   0  0
    0.0000    0.0000    0.0000 C   0  0
    0.0000    0.0000    0.0000 C   0  0
    0.0000    0.0000    0.0000 N   0  0
    0.0000    0.0000    0.0000 C   0  0
    0.0000    0.0000    0.0000 C   0  0
    0.0000    0.0000    0.0000 C   0  0
  1  2  2  0
  2  3  1  0
  2 15  1  0
  2 18  1  0
  3  4  1  0
  4  9  1  0
  4  5  2  3
  5  6  1  0
  6  7  2  3
  6 14  1  0
  7  8  1  0
  7 10  1  0
  8  9  2  3
 10 11  2  0
 10 12  2  0
 10 13  1  0
 15 16  1  0
 16 17  1  0
 18 19  1  0
 19 20  1  0
 19 21  1  0
M  END
> <Name>
Fenamiphos Sulfone

> <CAS>
031972-44-8

> <VED1>
4.51

> <nHAcc>
6

> <MAXDP>
5.512

> <CIC0>
3.67

> <Log Koc Exp>
1.64

> <Log Koc Pred>
2.35

> <Hat>
0.038

> <Hat Cutoff>
0.161

> <ID Model>
561

> <Smiles>
O=P(Oc1cc(c(cc1)S(=O)(=O)C)C)(OCC)NC(C)C

$$$$
2,4-DB butoxyethyl ester
  SciTegic03251110552D

 22 22  0  0  0  0            999 V2000
    0.0000    0.0000    0.0000 C   0  0
    0.0000    0.0000    0.0000 C   0  0
    0.0000    0.0000    0.0000 C   0  0
    0.0000    0.0000    0.0000 C   0  0
    0.0000    0.0000    0.0000 C   0  0
    0.0000    0.0000    0.0000 C   0  0
    0.0000    0.0000    0.0000 O   0  0
    0.0000    0.0000    0.0000 C   0  0
    0.0000    0.0000    0.0000 C   0  0
    0.0000    0.0000    0.0000 C   0  0
    0.0000    0.0000    0.0000 C   0  0
    0.0000    0.0000    0.0000 O   0  0
    0.0000    0.0000    0.0000 O   0  0
    0.0000    0.0000    0.0000 C   0  0
    0.0000    0.0000    0.0000 C   0  0
    0.0000    0.0000    0.0000 O   0  0
    0.0000    0.0000    0.0000 C   0  0
    0.0000    0.0000    0.0000 C   0  0
    0.0000    0.0000    0.0000 C   0  0
    0.0000    0.0000    0.0000 C   0  0
    0.0000    0.0000    0.0000 Cl  0  0
    0.0000    0.0000    0.0000 Cl  0  0
  1  6  1  0
  1  2  2  3
  1 22  1  0
  2  3  1  0
  3  4  2  3
  3 21  1  0
  4  5  1  0
  4  7  1  0
  5  6  2  3
  7  8  1  0
  8  9  1  0
  9 10  1  0
 10 11  1  0
 11 12  2  0
 11 13  1  0
 13 14  1  0
 14 15  1  0
 15 16  1  0
 16 17  1  0
 17 18  1  0
 18 19  1  0
 19 20  1  0
M  END
> <Name>
2,4-DB butoxyethyl ester

> <CAS>
032357-46-3

> <VED1>
4.615

> <nHAcc>
4

> <MAXDP>
4.478

> <CIC0>
3.912

> <Log Koc Exp>
2.7

> <Log Koc Pred>
3.48

> <Hat>
0.031

> <Hat Cutoff>
0.161

> <ID Model>
562

> <Smiles>
c1(cc(c(cc1)OCCCC(=O)OCCOCCCC)Cl)Cl

$$$$
2,3',4',5-Tetrachlorobiphenyl
  SciTegic03251110552D

 16 17  0  0  0  0            999 V2000
    0.0000    0.0000    0.0000 C   0  0
    0.0000    0.0000    0.0000 C   0  0
    0.0000    0.0000    0.0000 C   0  0
    0.0000    0.0000    0.0000 C   0  0
    0.0000    0.0000    0.0000 C   0  0
    0.0000    0.0000    0.0000 C   0  0
    0.0000    0.0000    0.0000 Cl  0  0
    0.0000    0.0000    0.0000 Cl  0  0
    0.0000    0.0000    0.0000 C   0  0
    0.0000    0.0000    0.0000 C   0  0
    0.0000    0.0000    0.0000 C   0  0
    0.0000    0.0000    0.0000 C   0  0
    0.0000    0.0000    0.0000 C   0  0
    0.0000    0.0000    0.0000 C   0  0
    0.0000    0.0000    0.0000 Cl  0  0
    0.0000    0.0000    0.0000 Cl  0  0
  1  6  1  0
  1  2  2  3
  2  3  1  0
  2  9  1  0
  3  4  2  3
  4  5  1  0
  4  8  1  0
  5  6  2  3
  5  7  1  0
  9 14  1  0
  9 10  2  3
 10 11  1  0
 10 16  1  0
 11 12  2  3
 12 13  1  0
 13 14  2  3
 13 15  1  0
M  END
> <Name>
2,3',4',5-Tetrachlorobiphenyl

> <CAS>
032598-11-1

> <VED1>
3.945

> <nHAcc>
0

> <MAXDP>
1.977

> <CIC0>
3.024

> <Log Koc Exp>
4.85

> <Log Koc Pred>
4.49

> <Hat>
0.056

> <Hat Cutoff>
0.161

> <ID Model>
563

> <Smiles>
c1c(cc(c(c1)Cl)Cl)c1c(ccc(c1)Cl)Cl

$$$$
Fluchloralin
  SciTegic03251110552D

 23 23  0  0  0  0            999 V2000
    0.0000    0.0000    0.0000 C   0  0
    0.0000    0.0000    0.0000 C   0  0
    0.0000    0.0000    0.0000 C   0  0
    0.0000    0.0000    0.0000 C   0  0
    0.0000    0.0000    0.0000 C   0  0
    0.0000    0.0000    0.0000 C   0  0
    0.0000    0.0000    0.0000 N   0  0
    0.0000    0.0000    0.0000 O   0  0
    0.0000    0.0000    0.0000 O   0  0
    0.0000    0.0000    0.0000 N   0  0
    0.0000    0.0000    0.0000 C   0  0
    0.0000    0.0000    0.0000 C   0  0
    0.0000    0.0000    0.0000 Cl  0  0
    0.0000    0.0000    0.0000 C   0  0
    0.0000    0.0000    0.0000 C   0  0
    0.0000    0.0000    0.0000 C   0  0
    0.0000    0.0000    0.0000 N   0  0
    0.0000    0.0000    0.0000 O   0  0
    0.0000    0.0000    0.0000 O   0  0
    0.0000    0.0000    0.0000 C   0  0
    0.0000    0.0000    0.0000 F   0  0
    0.0000    0.0000    0.0000 F   0  0
    0.0000    0.0000    0.0000 F   0  0
  1  6  1  0
  1  2  2  3
  2  3  1  0
  2 20  1  0
  3  4  2  3
  4  5  1  0
  4 17  1  0
  5  6  2  3
  5 10  1  0
  6  7  1  0
  7  8  1  0
  7  9  1  0
 10 11  1  0
 10 14  1  0
 11 12  1  0
 12 13  1  0
 14 15  1  0
 15 16  1  0
 17 18  1  0
 17 19  1  0
 20 21  1  0
 20 22  1  0
 20 23  1  0
M  END
> <Name>
Fluchloralin

> <CAS>
033245-39-5

> <VED1>
4.711

> <nHAcc>
8

> <MAXDP>
4.824

> <CIC0>
3.018

> <Log Koc Exp>
3.55

> <Log Koc Pred>
2.52

> <Hat>
0.08

> <Hat Cutoff>
0.161

> <ID Model>
564

> <Smiles>
c1c(cc(c(c1N(O)O)N(CCCl)CCC)N(O)O)C(F)(F)F

$$$$
Butralin
  SciTegic03251110552D

 22 22  0  0  0  0            999 V2000
    0.0000    0.0000    0.0000 C   0  0
    0.0000    0.0000    0.0000 C   0  0
    0.0000    0.0000    0.0000 C   0  0
    0.0000    0.0000    0.0000 C   0  0
    0.0000    0.0000    0.0000 C   0  0
    0.0000    0.0000    0.0000 C   0  0
    0.0000    0.0000    0.0000 N   0  0
    0.0000    0.0000    0.0000 O   0  0
    0.0000    0.0000    0.0000 O   0  0
    0.0000    0.0000    0.0000 N   0  0
    0.0000    0.0000    0.0000 C   0  0
    0.0000    0.0000    0.0000 H   0  0
    0.0000    0.0000    0.0000 C   0  0
    0.0000    0.0000    0.0000 C   0  0
    0.0000    0.0000    0.0000 C   0  0
    0.0000    0.0000    0.0000 N   0  0
    0.0000    0.0000    0.0000 O   0  0
    0.0000    0.0000    0.0000 O   0  0
    0.0000    0.0000    0.0000 C   0  0
    0.0000    0.0000    0.0000 C   0  0
    0.0000    0.0000    0.0000 C   0  0
    0.0000    0.0000    0.0000 C   0  0
  1  6  1  0
  1  2  2  3
  2  3  1  0
  2 19  1  0
  3  4  2  3
  4  5  1  0
  4 16  1  0
  5  6  2  3
  5 10  1  0
  6  7  1  0
  7  8  1  0
  7  9  1  0
 10 11  1  0
 11 12  1  0
 11 13  1  0
 11 15  1  0
 13 14  1  0
 16 17  1  0
 16 18  1  0
 19 20  1  0
 19 21  1  0
 19 22  1  0
M  END
> <Name>
Butralin

> <CAS>
033629-47-9

> <VED1>
4.504

> <nHAcc>
5

> <MAXDP>
4.289

> <CIC0>
3.769

> <Log Koc Exp>
3.95

> <Log Koc Pred>
3.02

> <Hat>
0.028

> <Hat Cutoff>
0.161

> <ID Model>
565

> <Smiles>
c1c(cc(c(c1N(O)O)N[C@@H](CC)C)N(O)O)C(C)(C)C

$$$$
Isopropalin
  SciTegic03251110552D

 22 22  0  0  0  0            999 V2000
    0.0000    0.0000    0.0000 C   0  0
    0.0000    0.0000    0.0000 C   0  0
    0.0000    0.0000    0.0000 C   0  0
    0.0000    0.0000    0.0000 C   0  0
    0.0000    0.0000    0.0000 C   0  0
    0.0000    0.0000    0.0000 C   0  0
    0.0000    0.0000    0.0000 N   0  0
    0.0000    0.0000    0.0000 O   0  0
    0.0000    0.0000    0.0000 O   0  0
    0.0000    0.0000    0.0000 N   0  0
    0.0000    0.0000    0.0000 C   0  0
    0.0000    0.0000    0.0000 C   0  0
    0.0000    0.0000    0.0000 C   0  0
    0.0000    0.0000    0.0000 C   0  0
    0.0000    0.0000    0.0000 C   0  0
    0.0000    0.0000    0.0000 C   0  0
    0.0000    0.0000    0.0000 N   0  0
    0.0000    0.0000    0.0000 O   0  0
    0.0000    0.0000    0.0000 O   0  0
    0.0000    0.0000    0.0000 C   0  0
    0.0000    0.0000    0.0000 C   0  0
    0.0000    0.0000    0.0000 C   0  0
  1  6  1  0
  1  2  2  3
  2  3  1  0
  2 20  1  0
  3  4  2  3
  4  5  1  0
  4 17  1  0
  5  6  2  3
  5 10  1  0
  6  7  1  0
  7  8  1  0
  7  9  1  0
 10 11  1  0
 10 14  1  0
 11 12  1  0
 12 13  1  0
 14 15  1  0
 15 16  1  0
 17 18  1  0
 17 19  1  0
 20 21  1  0
 20 22  1  0
M  END
> <Name>
Isopropalin

> <CAS>
033820-53-0

> <VED1>
4.605

> <nHAcc>
5

> <MAXDP>
4.441

> <CIC0>
3.898

> <Log Koc Exp>
4

> <Log Koc Pred>
3.14

> <Hat>
0.031

> <Hat Cutoff>
0.161

> <ID Model>
566

> <Smiles>
c1c(cc(c(c1N(O)O)N(CCC)CCC)N(O)O)C(C)C

$$$$
Tebuthiuron
  SciTegic03251110552D

 15 15  0  0  0  0            999 V2000
    0.0000    0.0000    0.0000 S   0  0
    0.0000    0.0000    0.0000 C   0  0
    0.0000    0.0000    0.0000 N   0  0
    0.0000    0.0000    0.0000 N   0  0
    0.0000    0.0000    0.0000 C   0  0
    0.0000    0.0000    0.0000 N   0  0
    0.0000    0.0000    0.0000 C   0  0
    0.0000    0.0000    0.0000 O   0  0
    0.0000    0.0000    0.0000 N   0  0
    0.0000    0.0000    0.0000 C   0  0
    0.0000    0.0000    0.0000 C   0  0
    0.0000    0.0000    0.0000 C   0  0
    0.0000    0.0000    0.0000 C   0  0
    0.0000    0.0000    0.0000 C   0  0
    0.0000    0.0000    0.0000 C   0  0
  1  5  1  0
  1  2  1  0
  2  3  2  3
  2 12  1  0
  3  4  1  0
  4  5  2  3
  5  6  1  0
  6  7  1  0
  6 11  1  0
  7  8  2  0
  7  9  1  0
  9 10  1  0
 12 13  1  0
 12 14  1  0
 12 15  1  0
M  END
> <Name>
Tebuthiuron

> <CAS>
034014-18-1

> <VED1>
3.813

> <nHAcc>
5

> <MAXDP>
4.325

> <CIC0>
3.243

> <Log Koc Exp>
1.83

> <Log Koc Pred>
1.73

> <Hat>
0.028

> <Hat Cutoff>
0.161

> <ID Model>
567

> <Smiles>
s1c(nnc1N(C(=O)NC)C)C(C)(C)C

$$$$
Isoproturon
  SciTegic03251110552D

 15 15  0  0  0  0            999 V2000
    0.0000    0.0000    0.0000 C   0  0
    0.0000    0.0000    0.0000 C   0  0
    0.0000    0.0000    0.0000 C   0  0
    0.0000    0.0000    0.0000 C   0  0
    0.0000    0.0000    0.0000 C   0  0
    0.0000    0.0000    0.0000 C   0  0
    0.0000    0.0000    0.0000 C   0  0
    0.0000    0.0000    0.0000 C   0  0
    0.0000    0.0000    0.0000 C   0  0
    0.0000    0.0000    0.0000 N   0  0
    0.0000    0.0000    0.0000 C   0  0
    0.0000    0.0000    0.0000 O   0  0
    0.0000    0.0000    0.0000 N   0  0
    0.0000    0.0000    0.0000 C   0  0
    0.0000    0.0000    0.0000 C   0  0
  1  6  1  0
  1  2  2  3
  1 10  1  0
  2  3  1  0
  3  4  2  3
  4  5  1  0
  4  7  1  0
  5  6  2  3
  7  8  1  0
  7  9  1  0
 10 11  1  0
 11 12  2  0
 11 13  1  0
 13 14  1  0
 13 15  1  0
M  END
> <Name>
Isoproturon

> <CAS>
034123-59-6

> <VED1>
3.811

> <nHAcc>
3

> <MAXDP>
4.346

> <CIC0>
3.639

> <Log Koc Exp>
2.11

> <Log Koc Pred>
2.26

> <Hat>
0.035

> <Hat Cutoff>
0.161

> <ID Model>
568

> <Smiles>
c1(ccc(cc1)C(C)C)NC(=O)N(C)C

$$$$
2,4'-Dichlorobiphenyl
  SciTegic03251110552D

 14 15  0  0  0  0            999 V2000
    0.0000    0.0000    0.0000 C   0  0
    0.0000    0.0000    0.0000 C   0  0
    0.0000    0.0000    0.0000 C   0  0
    0.0000    0.0000    0.0000 C   0  0
    0.0000    0.0000    0.0000 C   0  0
    0.0000    0.0000    0.0000 C   0  0
    0.0000    0.0000    0.0000 C   0  0
    0.0000    0.0000    0.0000 C   0  0
    0.0000    0.0000    0.0000 C   0  0
    0.0000    0.0000    0.0000 C   0  0
    0.0000    0.0000    0.0000 C   0  0
    0.0000    0.0000    0.0000 C   0  0
    0.0000    0.0000    0.0000 Cl  0  0
    0.0000    0.0000    0.0000 Cl  0  0
  1  6  1  0
  1  2  2  3
  2  3  1  0
  3  4  2  3
  3 14  1  0
  4  5  1  0
  4  7  1  0
  5  6  2  3
  7 12  1  0
  7  8  2  3
  8  9  1  0
  9 10  2  3
 10 11  1  0
 10 13  1  0
 11 12  2  3
M  END
> <Name>
2,4'-Dichlorobiphenyl

> <CAS>
034883-43-7

> <VED1>
3.69

> <nHAcc>
0

> <MAXDP>
1.954

> <CIC0>
3.137

> <Log Koc Exp>
4.14

> <Log Koc Pred>
3.93

> <Hat>
0.036

> <Hat Cutoff>
0.161

> <ID Model>
570

> <Smiles>
c1cc(c(cc1)c1ccc(cc1)Cl)Cl

$$$$
2,2',4,4',5,5'-Hexachlorobiphenyl
  SciTegic03251110552D

 18 19  0  0  0  0            999 V2000
    0.0000    0.0000    0.0000 C   0  0
    0.0000    0.0000    0.0000 C   0  0
    0.0000    0.0000    0.0000 C   0  0
    0.0000    0.0000    0.0000 C   0  0
    0.0000    0.0000    0.0000 C   0  0
    0.0000    0.0000    0.0000 C   0  0
    0.0000    0.0000    0.0000 Cl  0  0
    0.0000    0.0000    0.0000 Cl  0  0
    0.0000    0.0000    0.0000 Cl  0  0
    0.0000    0.0000    0.0000 C   0  0
    0.0000    0.0000    0.0000 C   0  0
    0.0000    0.0000    0.0000 C   0  0
    0.0000    0.0000    0.0000 C   0  0
    0.0000    0.0000    0.0000 C   0  0
    0.0000    0.0000    0.0000 C   0  0
    0.0000    0.0000    0.0000 Cl  0  0
    0.0000    0.0000    0.0000 Cl  0  0
    0.0000    0.0000    0.0000 Cl  0  0
  1  6  1  0
  1  2  2  3
  2  3  1  0
  2 10  1  0
  3  4  2  3
  3  9  1  0
  4  5  1  0
  5  6  2  3
  5  8  1  0
  6  7  1  0
 10 15  1  0
 10 11  2  3
 11 12  1  0
 11 18  1  0
 12 13  2  3
 13 14  1  0
 13 17  1  0
 14 15  2  3
 14 16  1  0
M  END
> <Name>
2,2',4,4',5,5'-Hexachlorobiphenyl

> <CAS>
035065-27-1

> <VED1>
4.183

> <nHAcc>
0

> <MAXDP>
2.011

> <CIC0>
3.024

> <Log Koc Exp>
5.87

> <Log Koc Pred>
4.98

> <Hat>
0.08

> <Hat Cutoff>
0.161

> <ID Model>
571

> <Smiles>
c1c(c(cc(c1Cl)Cl)Cl)c1c(cc(c(c1)Cl)Cl)Cl

$$$$
Diflubenzuron
  SciTegic03251110552D

 21 22  0  0  0  0            999 V2000
    0.0000    0.0000    0.0000 C   0  0
    0.0000    0.0000    0.0000 C   0  0
    0.0000    0.0000    0.0000 C   0  0
    0.0000    0.0000    0.0000 C   0  0
    0.0000    0.0000    0.0000 C   0  0
    0.0000    0.0000    0.0000 C   0  0
    0.0000    0.0000    0.0000 F   0  0
    0.0000    0.0000    0.0000 C   0  0
    0.0000    0.0000    0.0000 O   0  0
    0.0000    0.0000    0.0000 N   0  0
    0.0000    0.0000    0.0000 C   0  0
    0.0000    0.0000    0.0000 O   0  0
    0.0000    0.0000    0.0000 N   0  0
    0.0000    0.0000    0.0000 C   0  0
    0.0000    0.0000    0.0000 C   0  0
    0.0000    0.0000    0.0000 C   0  0
    0.0000    0.0000    0.0000 C   0  0
    0.0000    0.0000    0.0000 C   0  0
    0.0000    0.0000    0.0000 C   0  0
    0.0000    0.0000    0.0000 Cl  0  0
    0.0000    0.0000    0.0000 F   0  0
  1  6  1  0
  1  2  2  3
  2  3  1  0
  3  4  2  3
  4  5  1  0
  4 21  1  0
  5  6  2  3
  5  8  1  0
  6  7  1  0
  8  9  2  0
  8 10  1  0
 10 11  1  0
 11 12  2  0
 11 13  1  0
 13 14  1  0
 14 19  1  0
 14 15  2  3
 15 16  1  0
 16 17  2  3
 17 18  1  0
 17 20  1  0
 18 19  2  3
M  END
> <Name>
Diflubenzuron

> <CAS>
035367-38-5

> <VED1>
4.522

> <nHAcc>
6

> <MAXDP>
5.375

> <CIC0>
2.928

> <Log Koc Exp>
3.83

> <Log Koc Pred>
2.66

> <Hat>
0.049

> <Hat Cutoff>
0.161

> <ID Model>
572

> <Smiles>
c1ccc(c(c1F)C(=O)NC(=O)Nc1ccc(cc1)Cl)F

$$$$
Sulprofos
  SciTegic03251110552D

 18 18  0  0  0  0            999 V2000
    0.0000    0.0000    0.0000 C   0  0
    0.0000    0.0000    0.0000 C   0  0
    0.0000    0.0000    0.0000 C   0  0
    0.0000    0.0000    0.0000 S   0  0
    0.0000    0.0000    0.0000 P   0  0
    0.0000    0.0000    0.0000 S   0  0
    0.0000    0.0000    0.0000 O   0  0
    0.0000    0.0000    0.0000 C   0  0
    0.0000    0.0000    0.0000 C   0  0
    0.0000    0.0000    0.0000 C   0  0
    0.0000    0.0000    0.0000 C   0  0
    0.0000    0.0000    0.0000 C   0  0
    0.0000    0.0000    0.0000 C   0  0
    0.0000    0.0000    0.0000 S   0  0
    0.0000    0.0000    0.0000 C   0  0
    0.0000    0.0000    0.0000 O   0  0
    0.0000    0.0000    0.0000 C   0  0
    0.0000    0.0000    0.0000 C   0  0
  1  2  1  0
  2  3  1  0
  3  4  1  0
  4  5  1  0
  5  6  2  0
  5  7  1  0
  5 16  1  0
  7  8  1  0
  8 13  1  0
  8  9  2  3
  9 10  1  0
 10 11  2  3
 11 12  1  0
 11 14  1  0
 12 13  2  3
 14 15  1  0
 16 17  1  0
 17 18  1  0
M  END
> <Name>
Sulprofos

> <CAS>
035400-43-2

> <VED1>
4.162

> <nHAcc>
2

> <MAXDP>
2.401

> <CIC0>
3.527

> <Log Koc Exp>
4.25

> <Log Koc Pred>
3.98

> <Hat>
0.028

> <Hat Cutoff>
0.161

> <ID Model>
573

> <Smiles>
CCCSP(=S)(Oc1ccc(cc1)SC)OCC

$$$$
Imazalil
  SciTegic03251110552D

 20 21  0  0  0  0            999 V2000
    0.0000    0.0000    0.0000 N   0  0
    0.0000    0.0000    0.0000 C   0  0
    0.0000    0.0000    0.0000 C   0  0
    0.0000    0.0000    0.0000 N   0  0
    0.0000    0.0000    0.0000 C   0  0
    0.0000    0.0000    0.0000 C   0  0
    0.0000    0.0000    0.0000 C   0  0
    0.0000    0.0000    0.0000 H   0  0
    0.0000    0.0000    0.0000 C   0  0
    0.0000    0.0000    0.0000 C   0  0
    0.0000    0.0000    0.0000 C   0  0
    0.0000    0.0000    0.0000 C   0  0
    0.0000    0.0000    0.0000 C   0  0
    0.0000    0.0000    0.0000 C   0  0
    0.0000    0.0000    0.0000 Cl  0  0
    0.0000    0.0000    0.0000 Cl  0  0
    0.0000    0.0000    0.0000 O   0  0
    0.0000    0.0000    0.0000 C   0  0
    0.0000    0.0000    0.0000 C   0  0
    0.0000    0.0000    0.0000 C   0  0
  1  5  1  0
  1  2  1  0
  1  6  1  0
  2  3  2  3
  3  4  1  0
  4  5  2  3
  6  7  1  0
  7  8  1  0
  7  9  1  0
  7 17  1  0
  9 14  1  0
  9 10  2  3
 10 11  1  0
 11 12  2  3
 12 13  1  0
 12 16  1  0
 13 14  2  3
 14 15  1  0
 17 18  1  0
 18 19  1  0
 19 20  2  0
M  END
> <Name>
Imazalil

> <CAS>
035554-44-0

> <VED1>
4.284

> <nHAcc>
2

> <MAXDP>
2.277

> <CIC0>
3.352

> <Log Koc Exp>
3.73

> <Log Koc Pred>
4.33

> <Hat>
0.038

> <Hat Cutoff>
0.161

> <ID Model>
574

> <Smiles>
n1(ccnc1)C[C@@H](c1ccc(cc1Cl)Cl)OCC=C

$$$$
2,2',5,5'-Tetrachlorobiphenyl
  SciTegic03251110552D

 16 17  0  0  0  0            999 V2000
    0.0000    0.0000    0.0000 C   0  0
    0.0000    0.0000    0.0000 C   0  0
    0.0000    0.0000    0.0000 C   0  0
    0.0000    0.0000    0.0000 C   0  0
    0.0000    0.0000    0.0000 C   0  0
    0.0000    0.0000    0.0000 C   0  0
    0.0000    0.0000    0.0000 Cl  0  0
    0.0000    0.0000    0.0000 Cl  0  0
    0.0000    0.0000    0.0000 C   0  0
    0.0000    0.0000    0.0000 C   0  0
    0.0000    0.0000    0.0000 C   0  0
    0.0000    0.0000    0.0000 C   0  0
    0.0000    0.0000    0.0000 C   0  0
    0.0000    0.0000    0.0000 C   0  0
    0.0000    0.0000    0.0000 Cl  0  0
    0.0000    0.0000    0.0000 Cl  0  0
  1  6  1  0
  1  2  2  3
  2  3  1  0
  2  9  1  0
  3  4  2  3
  3  8  1  0
  4  5  1  0
  5  6  2  3
  6  7  1  0
  9 14  1  0
  9 10  2  3
 10 11  1  0
 10 16  1  0
 11 12  2  3
 12 13  1  0
 13 14  2  3
 13 15  1  0
M  END
> <Name>
2,2',5,5'-Tetrachlorobiphenyl

> <CAS>
035693-99-3

> <VED1>
3.948

> <nHAcc>
0

> <MAXDP>
1.984

> <CIC0>
3.024

> <Log Koc Exp>
4.82

> <Log Koc Pred>
4.5

> <Hat>
0.056

> <Hat Cutoff>
0.161

> <ID Model>
575

> <Smiles>
c1c(c(ccc1Cl)Cl)c1c(ccc(c1)Cl)Cl

$$$$
Hexabromobiphenyl
  SciTegic03251110552D

 18 19  0  0  0  0            999 V2000
    0.0000    0.0000    0.0000 C   0  0
    0.0000    0.0000    0.0000 C   0  0
    0.0000    0.0000    0.0000 C   0  0
    0.0000    0.0000    0.0000 C   0  0
    0.0000    0.0000    0.0000 C   0  0
    0.0000    0.0000    0.0000 C   0  0
    0.0000    0.0000    0.0000 Br  0  0
    0.0000    0.0000    0.0000 Br  0  0
    0.0000    0.0000    0.0000 C   0  0
    0.0000    0.0000    0.0000 C   0  0
    0.0000    0.0000    0.0000 C   0  0
    0.0000    0.0000    0.0000 C   0  0
    0.0000    0.0000    0.0000 C   0  0
    0.0000    0.0000    0.0000 C   0  0
    0.0000    0.0000    0.0000 Br  0  0
    0.0000    0.0000    0.0000 Br  0  0
    0.0000    0.0000    0.0000 Br  0  0
    0.0000    0.0000    0.0000 Br  0  0
  1  6  1  0
  1  2  2  3
  1 18  1  0
  2  3  1  0
  3  4  2  3
  3  9  1  0
  4  5  1  0
  5  6  2  3
  5  8  1  0
  6  7  1  0
  9 14  1  0
  9 10  2  3
 10 11  1  0
 11 12  2  3
 11 17  1  0
 12 13  1  0
 12 16  1  0
 13 14  2  3
 13 15  1  0
M  END
> <Name>
Hexabromobiphenyl

> <CAS>
036355-01-8

> <VED1>
4.186

> <nHAcc>
0

> <MAXDP>
0.786

> <CIC0>
3.024

> <Log Koc Exp>
4.87

> <Log Koc Pred>
5.37

> <Hat>
0.098

> <Hat Cutoff>
0.161

> <ID Model>
576

> <Smiles>
c1(cc(cc(c1Br)Br)c1cc(c(c(c1)Br)Br)Br)Br

$$$$
3-(3,5-Dimethylphenyl)-1,1-dimethylurea
  SciTegic03251110552D

 14 14  0  0  0  0            999 V2000
    0.0000    0.0000    0.0000 C   0  0
    0.0000    0.0000    0.0000 C   0  0
    0.0000    0.0000    0.0000 C   0  0
    0.0000    0.0000    0.0000 C   0  0
    0.0000    0.0000    0.0000 C   0  0
    0.0000    0.0000    0.0000 C   0  0
    0.0000    0.0000    0.0000 C   0  0
    0.0000    0.0000    0.0000 N   0  0
    0.0000    0.0000    0.0000 C   0  0
    0.0000    0.0000    0.0000 O   0  0
    0.0000    0.0000    0.0000 N   0  0
    0.0000    0.0000    0.0000 C   0  0
    0.0000    0.0000    0.0000 C   0  0
    0.0000    0.0000    0.0000 C   0  0
  1  6  1  0
  1  2  2  3
  2  3  1  0
  2 14  1  0
  3  4  2  3
  4  5  1  0
  4  8  1  0
  5  6  2  3
  6  7  1  0
  8  9  1  0
  9 10  2  0
  9 11  1  0
 11 12  1  0
 11 13  1  0
M  END
> <Name>
3-(3,5-Dimethylphenyl)-1,1-dimethylurea

> <CAS>
036627-56-2

> <VED1>
3.691

> <nHAcc>
3

> <MAXDP>
4.35

> <CIC0>
3.468

> <Log Koc Exp>
1.73

> <Log Koc Pred>
2.07

> <Hat>
0.032

> <Hat Cutoff>
0.161

> <ID Model>
577

> <Smiles>
c1c(cc(cc1C)NC(=O)N(C)C)C

$$$$
Iprodione
  SciTegic03251110552D

 21 22  0  0  0  0            999 V2000
    0.0000    0.0000    0.0000 C   0  0
    0.0000    0.0000    0.0000 C   0  0
    0.0000    0.0000    0.0000 C   0  0
    0.0000    0.0000    0.0000 C   0  0
    0.0000    0.0000    0.0000 C   0  0
    0.0000    0.0000    0.0000 C   0  0
    0.0000    0.0000    0.0000 N   0  0
    0.0000    0.0000    0.0000 C   0  0
    0.0000    0.0000    0.0000 O   0  0
    0.0000    0.0000    0.0000 C   0  0
    0.0000    0.0000    0.0000 N   0  0
    0.0000    0.0000    0.0000 C   0  0
    0.0000    0.0000    0.0000 O   0  0
    0.0000    0.0000    0.0000 C   0  0
    0.0000    0.0000    0.0000 O   0  0
    0.0000    0.0000    0.0000 N   0  0
    0.0000    0.0000    0.0000 C   0  0
    0.0000    0.0000    0.0000 C   0  0
    0.0000    0.0000    0.0000 C   0  0
    0.0000    0.0000    0.0000 Cl  0  0
    0.0000    0.0000    0.0000 Cl  0  0
  1  6  1  0
  1  2  2  3
  1 21  1  0
  2  3  1  0
  3  4  2  3
  3 20  1  0
  4  5  1  0
  5  6  2  3
  5  7  1  0
  7 12  1  0
  7  8  1  0
  8  9  2  0
  8 10  1  0
 10 11  1  0
 11 12  1  0
 11 14  1  0
 12 13  2  0
 14 15  2  0
 14 16  1  0
 16 17  1  0
 17 18  1  0
 17 19  1  0
M  END
> <Name>
Iprodione

> <CAS>
036734-19-7

> <VED1>
4.508

> <nHAcc>
6

> <MAXDP>
5.246

> <CIC0>
3.168

> <Log Koc Exp>
2.17

> <Log Koc Pred>
2.59

> <Hat>
0.037

> <Hat Cutoff>
0.161

> <ID Model>
578

> <Smiles>
c1(cc(cc(c1)N1C(=O)CN(C1=O)C(=O)NC(C)C)Cl)Cl

$$$$
2,5,2'-Trichlorobiphenyl
  SciTegic03251110552D

 15 16  0  0  0  0            999 V2000
    0.0000    0.0000    0.0000 C   0  0
    0.0000    0.0000    0.0000 C   0  0
    0.0000    0.0000    0.0000 C   0  0
    0.0000    0.0000    0.0000 C   0  0
    0.0000    0.0000    0.0000 C   0  0
    0.0000    0.0000    0.0000 C   0  0
    0.0000    0.0000    0.0000 Cl  0  0
    0.0000    0.0000    0.0000 C   0  0
    0.0000    0.0000    0.0000 C   0  0
    0.0000    0.0000    0.0000 C   0  0
    0.0000    0.0000    0.0000 C   0  0
    0.0000    0.0000    0.0000 C   0  0
    0.0000    0.0000    0.0000 C   0  0
    0.0000    0.0000    0.0000 Cl  0  0
    0.0000    0.0000    0.0000 Cl  0  0
  1  6  1  0
  1  2  2  3
  2  3  1  0
  2  8  1  0
  3  4  2  3
  3  7  1  0
  4  5  1  0
  5  6  2  3
  8 13  1  0
  8  9  2  3
  9 10  1  0
  9 15  1  0
 10 11  2  3
 11 12  1  0
 12 13  2  3
 12 14  1  0
M  END
> <Name>
2,5,2'-Trichlorobiphenyl

> <CAS>
037680-65-2

> <VED1>
3.824

> <nHAcc>
0

> <MAXDP>
1.974

> <CIC0>
3.065

> <Log Koc Exp>
4.23

> <Log Koc Pred>
4.23

> <Hat>
0.045

> <Hat Cutoff>
0.161

> <ID Model>
579

> <Smiles>
c1c(c(ccc1)Cl)c1c(ccc(c1)Cl)Cl

$$$$
2,2',4,5,5'-Pentachlorobiphenyl
  SciTegic03251110552D

 17 18  0  0  0  0            999 V2000
    0.0000    0.0000    0.0000 C   0  0
    0.0000    0.0000    0.0000 C   0  0
    0.0000    0.0000    0.0000 C   0  0
    0.0000    0.0000    0.0000 C   0  0
    0.0000    0.0000    0.0000 C   0  0
    0.0000    0.0000    0.0000 C   0  0
    0.0000    0.0000    0.0000 Cl  0  0
    0.0000    0.0000    0.0000 Cl  0  0
    0.0000    0.0000    0.0000 C   0  0
    0.0000    0.0000    0.0000 C   0  0
    0.0000    0.0000    0.0000 C   0  0
    0.0000    0.0000    0.0000 C   0  0
    0.0000    0.0000    0.0000 C   0  0
    0.0000    0.0000    0.0000 C   0  0
    0.0000    0.0000    0.0000 Cl  0  0
    0.0000    0.0000    0.0000 Cl  0  0
    0.0000    0.0000    0.0000 Cl  0  0
  1  6  1  0
  1  2  2  3
  2  3  1  0
  2  9  1  0
  3  4  2  3
  3  8  1  0
  4  5  1  0
  5  6  2  3
  6  7  1  0
  9 14  1  0
  9 10  2  3
 10 11  1  0
 10 17  1  0
 11 12  2  3
 12 13  1  0
 12 16  1  0
 13 14  2  3
 13 15  1  0
M  END
> <Name>
2,2',4,5,5'-Pentachlorobiphenyl

> <CAS>
037680-73-2

> <VED1>
4.067

> <nHAcc>
0

> <MAXDP>
2.004

> <CIC0>
3.011

> <Log Koc Exp>
4.63

> <Log Koc Pred>
4.74

> <Hat>
0.068

> <Hat Cutoff>
0.161

> <ID Model>
581

> <Smiles>
c1c(c(ccc1Cl)Cl)c1c(cc(c(c1)Cl)Cl)Cl

$$$$
2,2',3,4,5'-Pentachlorobiphenyl
  SciTegic03251110552D

 17 18  0  0  0  0            999 V2000
    0.0000    0.0000    0.0000 C   0  0
    0.0000    0.0000    0.0000 C   0  0
    0.0000    0.0000    0.0000 C   0  0
    0.0000    0.0000    0.0000 C   0  0
    0.0000    0.0000    0.0000 C   0  0
    0.0000    0.0000    0.0000 C   0  0
    0.0000    0.0000    0.0000 Cl  0  0
    0.0000    0.0000    0.0000 Cl  0  0
    0.0000    0.0000    0.0000 C   0  0
    0.0000    0.0000    0.0000 C   0  0
    0.0000    0.0000    0.0000 C   0  0
    0.0000    0.0000    0.0000 C   0  0
    0.0000    0.0000    0.0000 C   0  0
    0.0000    0.0000    0.0000 C   0  0
    0.0000    0.0000    0.0000 Cl  0  0
    0.0000    0.0000    0.0000 Cl  0  0
    0.0000    0.0000    0.0000 Cl  0  0
  1  6  1  0
  1  2  2  3
  2  3  1  0
  2  9  1  0
  3  4  2  3
  3  8  1  0
  4  5  1  0
  5  6  2  3
  6  7  1  0
  9 14  1  0
  9 10  2  3
 10 11  1  0
 10 17  1  0
 11 12  2  3
 11 16  1  0
 12 13  1  0
 12 15  1  0
 13 14  2  3
M  END
> <Name>
2,2',3,4,5'-Pentachlorobiphenyl

> <CAS>
038380-02-8

> <VED1>
4.068

> <nHAcc>
0

> <MAXDP>
2.028

> <CIC0>
3.011

> <Log Koc Exp>
4.68

> <Log Koc Pred>
4.74

> <Hat>
0.068

> <Hat Cutoff>
0.161

> <ID Model>
582

> <Smiles>
c1c(c(ccc1Cl)Cl)c1c(c(c(cc1)Cl)Cl)Cl

$$$$
Pendimethalin
  SciTegic03251110552D

 20 20  0  0  0  0            999 V2000
    0.0000    0.0000    0.0000 C   0  0
    0.0000    0.0000    0.0000 C   0  0
    0.0000    0.0000    0.0000 C   0  0
    0.0000    0.0000    0.0000 C   0  0
    0.0000    0.0000    0.0000 C   0  0
    0.0000    0.0000    0.0000 C   0  0
    0.0000    0.0000    0.0000 N   0  0
    0.0000    0.0000    0.0000 O   0  0
    0.0000    0.0000    0.0000 O   0  0
    0.0000    0.0000    0.0000 N   0  0
    0.0000    0.0000    0.0000 C   0  0
    0.0000    0.0000    0.0000 C   0  0
    0.0000    0.0000    0.0000 C   0  0
    0.0000    0.0000    0.0000 C   0  0
    0.0000    0.0000    0.0000 C   0  0
    0.0000    0.0000    0.0000 N   0  0
    0.0000    0.0000    0.0000 O   0  0
    0.0000    0.0000    0.0000 O   0  0
    0.0000    0.0000    0.0000 C   0  0
    0.0000    0.0000    0.0000 C   0  0
  1  6  1  0
  1  2  2  3
  2  3  1  0
  2 20  1  0
  3  4  2  3
  3 19  1  0
  4  5  1  0
  4 16  1  0
  5  6  2  3
  5 10  1  0
  6  7  1  0
  7  8  1  0
  7  9  1  0
 10 11  1  0
 11 12  1  0
 11 14  1  0
 12 13  1  0
 14 15  1  0
 16 17  1  0
 16 18  1  0
M  END
> <Name>
Pendimethalin

> <CAS>
040487-42-1

> <VED1>
4.399

> <nHAcc>
5

> <MAXDP>
4.271

> <CIC0>
3.63

> <Log Koc Exp>
2.96

> <Log Koc Pred>
2.85

> <Hat>
0.025

> <Hat Cutoff>
0.161

> <ID Model>
585

> <Smiles>
c1c(c(c(c(c1N(O)O)NC(CC)CC)N(O)O)C)C

$$$$
Profenofos
  SciTegic03251110552D

 18 18  0  0  0  0            999 V2000
    0.0000    0.0000    0.0000 C   0  0
    0.0000    0.0000    0.0000 C   0  0
    0.0000    0.0000    0.0000 C   0  0
    0.0000    0.0000    0.0000 S   0  0
    0.0000    0.0000    0.0000 P   0  0
    0.0000    0.0000    0.0000 O   0  0
    0.0000    0.0000    0.0000 O   0  0
    0.0000    0.0000    0.0000 C   0  0
    0.0000    0.0000    0.0000 C   0  0
    0.0000    0.0000    0.0000 O   0  0
    0.0000    0.0000    0.0000 C   0  0
    0.0000    0.0000    0.0000 C   0  0
    0.0000    0.0000    0.0000 C   0  0
    0.0000    0.0000    0.0000 C   0  0
    0.0000    0.0000    0.0000 C   0  0
    0.0000    0.0000    0.0000 C   0  0
    0.0000    0.0000    0.0000 Cl  0  0
    0.0000    0.0000    0.0000 Br  0  0
  1  2  1  0
  2  3  1  0
  3  4  1  0
  4  5  1  0
  5  6  2  0
  5  7  1  0
  5 10  1  0
  7  8  1  0
  8  9  1  0
 10 11  1  0
 11 16  1  0
 11 12  2  3
 12 13  1  0
 13 14  2  3
 14 15  1  0
 14 18  1  0
 15 16  2  3
 16 17  1  0
M  END
> <Name>
Profenofos

> <CAS>
041198-08-7

> <VED1>
4.167

> <nHAcc>
3

> <MAXDP>
5.427

> <CIC0>
3.073

> <Log Koc Exp>
3.03

> <Log Koc Pred>
2.87

> <Hat>
0.06

> <Hat Cutoff>
0.161

> <ID Model>
586

> <Smiles>
CCCSP(=O)(OCC)Oc1ccc(cc1Cl)Br

$$$$
Metamitron
  SciTegic03251110552D

 15 16  0  0  0  0            999 V2000
    0.0000    0.0000    0.0000 C   0  0
    0.0000    0.0000    0.0000 C   0  0
    0.0000    0.0000    0.0000 C   0  0
    0.0000    0.0000    0.0000 C   0  0
    0.0000    0.0000    0.0000 C   0  0
    0.0000    0.0000    0.0000 C   0  0
    0.0000    0.0000    0.0000 C   0  0
    0.0000    0.0000    0.0000 N   0  0
    0.0000    0.0000    0.0000 N   0  0
    0.0000    0.0000    0.0000 C   0  0
    0.0000    0.0000    0.0000 N   0  0
    0.0000    0.0000    0.0000 C   0  0
    0.0000    0.0000    0.0000 O   0  0
    0.0000    0.0000    0.0000 N   0  0
    0.0000    0.0000    0.0000 C   0  0
  1  6  1  0
  1  2  2  3
  2  3  1  0
  3  4  2  3
  4  5  1  0
  4  7  1  0
  5  6  2  3
  7 12  1  0
  7  8  2  3
  8  9  1  0
  9 10  2  3
 10 11  1  0
 10 15  1  0
 11 12  1  0
 11 14  1  0
 12 13  2  0
M  END
> <Name>
Metamitron

> <CAS>
041394-05-2

> <VED1>
3.821

> <nHAcc>
5

> <MAXDP>
4.725

> <CIC0>
2.978

> <Log Koc Exp>
2.17

> <Log Koc Pred>
1.71

> <Hat>
0.026

> <Hat Cutoff>
0.161

> <ID Model>
587

> <Smiles>
c1ccc(cc1)c1nnc(n(c1=O)N)C

$$$$
Tricyclazole
  SciTegic03251110552D

 13 15  0  0  0  0            999 V2000
    0.0000    0.0000    0.0000 C   0  0
    0.0000    0.0000    0.0000 C   0  0
    0.0000    0.0000    0.0000 C   0  0
    0.0000    0.0000    0.0000 C   0  0
    0.0000    0.0000    0.0000 C   0  0
    0.0000    0.0000    0.0000 C   0  0
    0.0000    0.0000    0.0000 N   0  0
    0.0000    0.0000    0.0000 C   0  0
    0.0000    0.0000    0.0000 S   0  0
    0.0000    0.0000    0.0000 N   0  0
    0.0000    0.0000    0.0000 N   0  0
    0.0000    0.0000    0.0000 C   0  0
    0.0000    0.0000    0.0000 C   0  0
  1  6  1  0
  1  2  2  3
  2  3  1  0
  3  4  2  3
  4  5  1  0
  4 13  1  0
  5  9  1  0
  5  6  2  3
  6  7  1  0
  7 12  1  0
  7  8  1  0
  8  9  1  0
  8 10  2  3
 10 11  1  0
 11 12  2  3
M  END
> <Name>
Tricyclazole

> <CAS>
041814-78-2

> <VED1>
3.565

> <nHAcc>
2

> <MAXDP>
1.029

> <CIC0>
2.647

> <Log Koc Exp>
3.09

> <Log Koc Pred>
3.44

> <Hat>
0.045

> <Hat Cutoff>
0.161

> <ID Model>
588

> <Smiles>
c1ccc(c2c1n1c(s2)nnc1)C

$$$$
Isazophos
  SciTegic03251110552D

 18 18  0  0  0  0            999 V2000
    0.0000    0.0000    0.0000 C   0  0
    0.0000    0.0000    0.0000 C   0  0
    0.0000    0.0000    0.0000 O   0  0
    0.0000    0.0000    0.0000 P   0  0
    0.0000    0.0000    0.0000 S   0  0
    0.0000    0.0000    0.0000 O   0  0
    0.0000    0.0000    0.0000 C   0  0
    0.0000    0.0000    0.0000 C   0  0
    0.0000    0.0000    0.0000 O   0  0
    0.0000    0.0000    0.0000 C   0  0
    0.0000    0.0000    0.0000 N   0  0
    0.0000    0.0000    0.0000 N   0  0
    0.0000    0.0000    0.0000 C   0  0
    0.0000    0.0000    0.0000 N   0  0
    0.0000    0.0000    0.0000 Cl  0  0
    0.0000    0.0000    0.0000 C   0  0
    0.0000    0.0000    0.0000 C   0  0
    0.0000    0.0000    0.0000 C   0  0
  1  2  1  0
  2  3  1  0
  3  4  1  0
  4  5  2  0
  4  6  1  0
  4  9  1  0
  6  7  1  0
  7  8  1  0
  9 10  1  0
 10 14  1  0
 10 11  2  3
 11 12  1  0
 12 13  1  0
 12 16  1  0
 13 14  2  3
 13 15  1  0
 16 17  1  0
 16 18  1  0
M  END
> <Name>
Isazophos

> <CAS>
042509-80-8

> <VED1>
4.171

> <nHAcc>
5

> <MAXDP>
1.948

> <CIC0>
3.072

> <Log Koc Exp>
2.01

> <Log Koc Pred>
3.27

> <Hat>
0.073

> <Hat Cutoff>
0.161

> <ID Model>
589

> <Smiles>
CCOP(=S)(OCC)Oc1nn(c(n1)Cl)C(C)C

$$$$
Bifenox
  SciTegic03251110552D

 22 23  0  0  0  0            999 V2000
    0.0000    0.0000    0.0000 C   0  0
    0.0000    0.0000    0.0000 C   0  0
    0.0000    0.0000    0.0000 C   0  0
    0.0000    0.0000    0.0000 C   0  0
    0.0000    0.0000    0.0000 C   0  0
    0.0000    0.0000    0.0000 C   0  0
    0.0000    0.0000    0.0000 O   0  0
    0.0000    0.0000    0.0000 C   0  0
    0.0000    0.0000    0.0000 C   0  0
    0.0000    0.0000    0.0000 C   0  0
    0.0000    0.0000    0.0000 C   0  0
    0.0000    0.0000    0.0000 C   0  0
    0.0000    0.0000    0.0000 C   0  0
    0.0000    0.0000    0.0000 Cl  0  0
    0.0000    0.0000    0.0000 Cl  0  0
    0.0000    0.0000    0.0000 N   0  0
    0.0000    0.0000    0.0000 O   0  0
    0.0000    0.0000    0.0000 O   0  0
    0.0000    0.0000    0.0000 C   0  0
    0.0000    0.0000    0.0000 O   0  0
    0.0000    0.0000    0.0000 O   0  0
    0.0000    0.0000    0.0000 C   0  0
  1  6  1  0
  1  2  2  3
  1 19  1  0
  2  3  1  0
  2 16  1  0
  3  4  2  3
  4  5  1  0
  5  6  2  3
  5  7  1  0
  7  8  1  0
  8 13  1  0
  8  9  2  3
  9 10  1  0
 10 11  2  3
 11 12  1  0
 11 15  1  0
 12 13  2  3
 13 14  1  0
 16 17  1  0
 16 18  1  0
 19 20  2  0
 19 21  1  0
 21 22  1  0
M  END
> <Name>
Bifenox

> <CAS>
042576-02-3

> <VED1>
4.618

> <nHAcc>
5

> <MAXDP>
4.629

> <CIC0>
3.079

> <Log Koc Exp>
3.66

> <Log Koc Pred>
3.38

> <Hat>
0.042

> <Hat Cutoff>
0.161

> <ID Model>
590

> <Smiles>
c1(c(ccc(c1)Oc1ccc(cc1Cl)Cl)N(O)O)C(=O)OC

$$$$
Oxyfluorofen
  SciTegic03251110552D

 24 25  0  0  0  0            999 V2000
    0.0000    0.0000    0.0000 C   0  0
    0.0000    0.0000    0.0000 C   0  0
    0.0000    0.0000    0.0000 C   0  0
    0.0000    0.0000    0.0000 C   0  0
    0.0000    0.0000    0.0000 C   0  0
    0.0000    0.0000    0.0000 C   0  0
    0.0000    0.0000    0.0000 O   0  0
    0.0000    0.0000    0.0000 C   0  0
    0.0000    0.0000    0.0000 C   0  0
    0.0000    0.0000    0.0000 O   0  0
    0.0000    0.0000    0.0000 C   0  0
    0.0000    0.0000    0.0000 C   0  0
    0.0000    0.0000    0.0000 C   0  0
    0.0000    0.0000    0.0000 C   0  0
    0.0000    0.0000    0.0000 C   0  0
    0.0000    0.0000    0.0000 C   0  0
    0.0000    0.0000    0.0000 Cl  0  0
    0.0000    0.0000    0.0000 C   0  0
    0.0000    0.0000    0.0000 F   0  0
    0.0000    0.0000    0.0000 F   0  0
    0.0000    0.0000    0.0000 F   0  0
    0.0000    0.0000    0.0000 N   0  0
    0.0000    0.0000    0.0000 O   0  0
    0.0000    0.0000    0.0000 O   0  0
  1  6  1  0
  1  2  2  3
  1 22  1  0
  2  3  1  0
  3  4  2  3
  4  5  1  0
  4 10  1  0
  5  6  2  3
  6  7  1  0
  7  8  1  0
  8  9  1  0
 10 11  1  0
 11 16  1  0
 11 12  2  3
 12 13  1  0
 13 14  2  3
 14 15  1  0
 14 18  1  0
 15 16  2  3
 16 17  1  0
 18 19  1  0
 18 20  1  0
 18 21  1  0
 22 23  1  0
 22 24  1  0
M  END
> <Name>
Oxyfluorofen

> <CAS>
042874-03-3

> <VED1>
4.822

> <nHAcc>
7

> <MAXDP>
4.604

> <CIC0>
3.126

> <Log Koc Exp>
4.85

> <Log Koc Pred>
3.13

> <Hat>
0.066

> <Hat Cutoff>
0.161

> <ID Model>
591

> <Smiles>
c1(ccc(cc1OCC)Oc1ccc(cc1Cl)C(F)(F)F)N(O)O

$$$$
Triadimefon
  SciTegic03251110552D

 21 22  0  0  0  0            999 V2000
    0.0000    0.0000    0.0000 C   0  0
    0.0000    0.0000    0.0000 C   0  0
    0.0000    0.0000    0.0000 C   0  0
    0.0000    0.0000    0.0000 C   0  0
    0.0000    0.0000    0.0000 C   0  0
    0.0000    0.0000    0.0000 C   0  0
    0.0000    0.0000    0.0000 O   0  0
    0.0000    0.0000    0.0000 C   0  0
    0.0000    0.0000    0.0000 H   0  0
    0.0000    0.0000    0.0000 C   0  0
    0.0000    0.0000    0.0000 O   0  0
    0.0000    0.0000    0.0000 C   0  0
    0.0000    0.0000    0.0000 C   0  0
    0.0000    0.0000    0.0000 C   0  0
    0.0000    0.0000    0.0000 C   0  0
    0.0000    0.0000    0.0000 N   0  0
    0.0000    0.0000    0.0000 C   0  0
    0.0000    0.0000    0.0000 N   0  0
    0.0000    0.0000    0.0000 C   0  0
    0.0000    0.0000    0.0000 N   0  0
    0.0000    0.0000    0.0000 Cl  0  0
  1  6  1  0
  1  2  2  3
  2  3  1  0
  2 21  1  0
  3  4  2  3
  4  5  1  0
  5  6  2  3
  5  7  1  0
  7  8  1  0
  8  9  1  0
  8 10  1  0
  8 16  1  0
 10 11  2  0
 10 12  1  0
 12 13  1  0
 12 14  1  0
 12 15  1  0
 16 20  1  0
 16 17  1  0
 17 18  2  3
 18 19  1  0
 19 20  2  3
M  END
> <Name>
Triadimefon

> <CAS>
043121-43-3

> <VED1>
4.406

> <nHAcc>
4

> <MAXDP>
5.495

> <CIC0>
3.446

> <Log Koc Exp>
2.61

> <Log Koc Pred>
2.89

> <Hat>
0.043

> <Hat Cutoff>
0.161

> <ID Model>
592

> <Smiles>
c1c(ccc(c1)O[C@H](C(=O)C(C)(C)C)n1cncn1)Cl

$$$$
Metolachlor
  SciTegic03251110552D

 20 20  0  0  0  0            999 V2000
    0.0000    0.0000    0.0000 C   0  0
    0.0000    0.0000    0.0000 C   0  0
    0.0000    0.0000    0.0000 C   0  0
    0.0000    0.0000    0.0000 C   0  0
    0.0000    0.0000    0.0000 C   0  0
    0.0000    0.0000    0.0000 C   0  0
    0.0000    0.0000    0.0000 C   0  0
    0.0000    0.0000    0.0000 N   0  0
    0.0000    0.0000    0.0000 C   0  0
    0.0000    0.0000    0.0000 H   0  0
    0.0000    0.0000    0.0000 C   0  0
    0.0000    0.0000    0.0000 C   0  0
    0.0000    0.0000    0.0000 O   0  0
    0.0000    0.0000    0.0000 C   0  0
    0.0000    0.0000    0.0000 C   0  0
    0.0000    0.0000    0.0000 O   0  0
    0.0000    0.0000    0.0000 C   0  0
    0.0000    0.0000    0.0000 Cl  0  0
    0.0000    0.0000    0.0000 C   0  0
    0.0000    0.0000    0.0000 C   0  0
  1  6  1  0
  1  2  2  3
  2  3  1  0
  3  4  2  3
  4  5  1  0
  4 19  1  0
  5  6  2  3
  5  8  1  0
  6  7  1  0
  8  9  1  0
  8 15  1  0
  9 10  1  0
  9 11  1  0
  9 12  1  0
 12 13  1  0
 13 14  1  0
 15 16  2  0
 15 17  1  0
 17 18  1  0
 19 20  1  0
M  END
> <Name>
Metolachlor

> <CAS>
051218-45-2

> <VED1>
4.285

> <nHAcc>
3

> <MAXDP>
5.188

> <CIC0>
3.871

> <Log Koc Exp>
2.46

> <Log Koc Pred>
2.92

> <Hat>
0.051

> <Hat Cutoff>
0.161

> <ID Model>
593

> <Smiles>
c1ccc(c(c1C)N([C@@H](C)COC)C(=O)CCl)CC

$$$$
Diclofop-Methyl
  SciTegic03251110552D

 23 24  0  0  0  0            999 V2000
    0.0000    0.0000    0.0000 C   0  0
    0.0000    0.0000    0.0000 C   0  0
    0.0000    0.0000    0.0000 C   0  0
    0.0000    0.0000    0.0000 C   0  0
    0.0000    0.0000    0.0000 C   0  0
    0.0000    0.0000    0.0000 C   0  0
    0.0000    0.0000    0.0000 O   0  0
    0.0000    0.0000    0.0000 C   0  0
    0.0000    0.0000    0.0000 C   0  0
    0.0000    0.0000    0.0000 C   0  0
    0.0000    0.0000    0.0000 C   0  0
    0.0000    0.0000    0.0000 C   0  0
    0.0000    0.0000    0.0000 C   0  0
    0.0000    0.0000    0.0000 Cl  0  0
    0.0000    0.0000    0.0000 Cl  0  0
    0.0000    0.0000    0.0000 O   0  0
    0.0000    0.0000    0.0000 C   0  0
    0.0000    0.0000    0.0000 H   0  0
    0.0000    0.0000    0.0000 C   0  0
    0.0000    0.0000    0.0000 C   0  0
    0.0000    0.0000    0.0000 O   0  0
    0.0000    0.0000    0.0000 O   0  0
    0.0000    0.0000    0.0000 C   0  0
  1  6  1  0
  1  2  2  3
  1 16  1  0
  2  3  1  0
  2  7  1  0
  3  4  2  3
  4  5  1  0
  5  6  2  3
  7  8  1  0
  8 13  1  0
  8  9  2  3
  9 10  1  0
  9 15  1  0
 10 11  2  3
 11 12  1  0
 11 14  1  0
 12 13  2  3
 16 17  1  0
 17 18  1  0
 17 19  1  0
 17 20  1  0
 20 21  2  0
 20 22  1  0
 22 23  1  0
M  END
> <Name>
Diclofop-Methyl

> <CAS>
051338-27-3

> <VED1>
4.619

> <nHAcc>
4

> <MAXDP>
4.454

> <CIC0>
3.536

> <Log Koc Exp>
4.2

> <Log Koc Pred>
3.62

> <Hat>
0.031

> <Hat Cutoff>
0.161

> <ID Model>
595

> <Smiles>
c1(c(cccc1)Oc1c(cc(cc1)Cl)Cl)O[C@@H](C)C(=O)OC

$$$$
Fenvalerate
  SciTegic03251110552D

 32 34  0  0  0  0            999 V2000
    0.0000    0.0000    0.0000 C   0  0
    0.0000    0.0000    0.0000 C   0  0
    0.0000    0.0000    0.0000 C   0  0
    0.0000    0.0000    0.0000 C   0  0
    0.0000    0.0000    0.0000 C   0  0
    0.0000    0.0000    0.0000 C   0  0
    0.0000    0.0000    0.0000 C   0  0
    0.0000    0.0000    0.0000 H   0  0
    0.0000    0.0000    0.0000 O   0  0
    0.0000    0.0000    0.0000 C   0  0
    0.0000    0.0000    0.0000 O   0  0
    0.0000    0.0000    0.0000 C   0  0
    0.0000    0.0000    0.0000 H   0  0
    0.0000    0.0000    0.0000 C   0  0
    0.0000    0.0000    0.0000 C   0  0
    0.0000    0.0000    0.0000 C   0  0
    0.0000    0.0000    0.0000 C   0  0
    0.0000    0.0000    0.0000 Cl  0  0
    0.0000    0.0000    0.0000 C   0  0
    0.0000    0.0000    0.0000 C   0  0
    0.0000    0.0000    0.0000 C   0  0
    0.0000    0.0000    0.0000 C   0  0
    0.0000    0.0000    0.0000 C   0  0
    0.0000    0.0000    0.0000 C   0  0
    0.0000    0.0000    0.0000 N   0  0
    0.0000    0.0000    0.0000 O   0  0
    0.0000    0.0000    0.0000 C   0  0
    0.0000    0.0000    0.0000 C   0  0
    0.0000    0.0000    0.0000 C   0  0
    0.0000    0.0000    0.0000 C   0  0
    0.0000    0.0000    0.0000 C   0  0
    0.0000    0.0000    0.0000 C   0  0
  1  6  1  0
  1  2  2  3
  2  3  1  0
  3  4  2  3
  4  5  1  0
  4 26  1  0
  5  6  2  3
  6  7  1  0
  7  8  1  0
  7  9  1  0
  7 24  1  0
  9 10  1  0
 10 11  2  0
 10 12  1  0
 12 13  1  0
 12 14  1  0
 12 21  1  0
 14 20  1  0
 14 15  2  3
 15 16  1  0
 16 17  2  3
 17 18  1  0
 17 19  1  0
 19 20  2  3
 21 22  1  0
 21 23  1  0
 24 25  3  0
 26 27  1  0
 27 32  1  0
 27 28  2  3
 28 29  1  0
 29 30  2  3
 30 31  1  0
 31 32  2  3
M  END
> <Name>
Fenvalerate

> <CAS>
051630-58-1

> <VED1>
5.394

> <nHAcc>
4

> <MAXDP>
5.951

> <CIC0>
4.211

> <Log Koc Exp>
4.37

> <Log Koc Pred>
4.57

> <Hat>
0.102

> <Hat Cutoff>
0.161

> <ID Model>
596

> <Smiles>
c1ccc(cc1[C@@H](OC(=O)[C@H](c1ccc(Cl)cc1)C(C)C)C#N)Oc1ccccc1

$$$$
Thidiazuron
  SciTegic03251110552D

 15 16  0  0  0  0            999 V2000
    0.0000    0.0000    0.0000 N   0  0
    0.0000    0.0000    0.0000 N   0  0
    0.0000    0.0000    0.0000 C   0  0
    0.0000    0.0000    0.0000 C   0  0
    0.0000    0.0000    0.0000 S   0  0
    0.0000    0.0000    0.0000 N   0  0
    0.0000    0.0000    0.0000 C   0  0
    0.0000    0.0000    0.0000 O   0  0
    0.0000    0.0000    0.0000 N   0  0
    0.0000    0.0000    0.0000 C   0  0
    0.0000    0.0000    0.0000 C   0  0
    0.0000    0.0000    0.0000 C   0  0
    0.0000    0.0000    0.0000 C   0  0
    0.0000    0.0000    0.0000 C   0  0
    0.0000    0.0000    0.0000 C   0  0
  1  5  1  0
  1  2  2  3
  2  3  1  0
  3  4  2  3
  4  5  1  0
  4  6  1  0
  6  7  1  0
  7  8  2  0
  7  9  1  0
  9 10  1  0
 10 15  1  0
 10 11  2  3
 11 12  1  0
 12 13  2  3
 13 14  1  0
 14 15  2  3
M  END
> <Name>
Thidiazuron

> <CAS>
051707-55-2

> <VED1>
3.826

> <nHAcc>
5

> <MAXDP>
4.409

> <CIC0>
2.632

> <Log Koc Exp>
2.02

> <Log Koc Pred>
1.93

> <Hat>
0.027

> <Hat Cutoff>
0.161

> <ID Model>
597

> <Smiles>
n1ncc(s1)NC(=O)Nc1ccccc1

$$$$
Cypermethrin
  SciTegic03251110552D

 31 33  0  0  0  0            999 V2000
    0.0000    0.0000    0.0000 C   0  0
    0.0000    0.0000    0.0000 C   0  0
    0.0000    0.0000    0.0000 C   0  0
    0.0000    0.0000    0.0000 O   0  0
    0.0000    0.0000    0.0000 C   0  0
    0.0000    0.0000    0.0000 C   0  0
    0.0000    0.0000    0.0000 C   0  0
    0.0000    0.0000    0.0000 C   0  0
    0.0000    0.0000    0.0000 H   0  0
    0.0000    0.0000    0.0000 O   0  0
    0.0000    0.0000    0.0000 C   0  0
    0.0000    0.0000    0.0000 O   0  0
    0.0000    0.0000    0.0000 C   0  0
    0.0000    0.0000    0.0000 H   0  0
    0.0000    0.0000    0.0000 C   0  0
    0.0000    0.0000    0.0000 H   0  0
    0.0000    0.0000    0.0000 C   0  0
    0.0000    0.0000    0.0000 C   0  0
    0.0000    0.0000    0.0000 Cl  0  0
    0.0000    0.0000    0.0000 Cl  0  0
    0.0000    0.0000    0.0000 C   0  0
    0.0000    0.0000    0.0000 C   0  0
    0.0000    0.0000    0.0000 C   0  0
    0.0000    0.0000    0.0000 C   0  0
    0.0000    0.0000    0.0000 N   0  0
    0.0000    0.0000    0.0000 C   0  0
    0.0000    0.0000    0.0000 C   0  0
    0.0000    0.0000    0.0000 C   0  0
    0.0000    0.0000    0.0000 C   0  0
    0.0000    0.0000    0.0000 C   0  0
    0.0000    0.0000    0.0000 C   0  0
  1 31  1  0
  1  2  2  3
  2  3  1  0
  3  4  1  0
  3 29  2  3
  4  5  1  0
  5 28  1  0
  5  6  2  3
  6  7  1  0
  7  8  1  0
  7 26  2  3
  8  9  1  0
  8 10  1  0
  8 24  1  0
 10 11  1  0
 11 12  2  0
 11 13  1  0
 13 14  1  0
 13 21  1  0
 13 15  1  0
 15 16  1  0
 15 17  1  0
 15 21  1  0
 17 18  2  3
 18 19  1  0
 18 20  1  0
 21 22  1  0
 21 23  1  0
 24 25  3  0
 26 27  1  0
 27 28  2  3
 29 30  1  0
 30 31  2  3
M  END
> <Name>
Cypermethrin

> <CAS>
052315-07-8

> <VED1>
5.21

> <nHAcc>
4

> <MAXDP>
5.611

> <CIC0>
3.948

> <Log Koc Exp>
4.64

> <Log Koc Pred>
4.37

> <Hat>
0.083

> <Hat Cutoff>
0.161

> <ID Model>
598

> <Smiles>
c1cc(Oc2cc([C@H](OC(=O)[C@H]3[C@H](C=C(Cl)Cl)C3(C)C)C#N)ccc2)ccc1

$$$$
Permethrin
  SciTegic03251110552D

 28 30  0  0  0  0            999 V2000
    0.0000    0.0000    0.0000 C   0  0
    0.0000    0.0000    0.0000 C   0  0
    0.0000    0.0000    0.0000 C   0  0
    0.0000    0.0000    0.0000 O   0  0
    0.0000    0.0000    0.0000 C   0  0
    0.0000    0.0000    0.0000 C   0  0
    0.0000    0.0000    0.0000 C   0  0
    0.0000    0.0000    0.0000 C   0  0
    0.0000    0.0000    0.0000 O   0  0
    0.0000    0.0000    0.0000 C   0  0
    0.0000    0.0000    0.0000 O   0  0
    0.0000    0.0000    0.0000 C   0  0
    0.0000    0.0000    0.0000 H   0  0
    0.0000    0.0000    0.0000 C   0  0
    0.0000    0.0000    0.0000 C   0  0
    0.0000    0.0000    0.0000 C   0  0
    0.0000    0.0000    0.0000 H   0  0
    0.0000    0.0000    0.0000 C   0  0
    0.0000    0.0000    0.0000 C   0  0
    0.0000    0.0000    0.0000 Cl  0  0
    0.0000    0.0000    0.0000 Cl  0  0
    0.0000    0.0000    0.0000 C   0  0
    0.0000    0.0000    0.0000 C   0  0
    0.0000    0.0000    0.0000 C   0  0
    0.0000    0.0000    0.0000 C   0  0
    0.0000    0.0000    0.0000 C   0  0
    0.0000    0.0000    0.0000 C   0  0
    0.0000    0.0000    0.0000 C   0  0
  1 28  1  0
  1  2  2  3
  2  3  1  0
  3  4  1  0
  3 26  2  3
  4  5  1  0
  5 25  1  0
  5  6  2  3
  6  7  1  0
  7  8  1  0
  7 23  2  3
  8  9  1  0
  9 10  1  0
 10 11  2  0
 10 12  1  0
 12 13  1  0
 12 16  1  0
 12 14  1  0
 14 15  1  0
 14 16  1  0
 14 22  1  0
 16 17  1  0
 16 18  1  0
 18 19  2  3
 19 20  1  0
 19 21  1  0
 23 24  1  0
 24 25  2  3
 26 27  1  0
 27 28  2  3
M  END
> <Name>
Permethrin

> <CAS>
052645-53-1

> <VED1>
5.025

> <nHAcc>
3

> <MAXDP>
5.393

> <CIC0>
4.031

> <Log Koc Exp>
4

> <Log Koc Pred>
4.36

> <Hat>
0.085

> <Hat Cutoff>
0.161

> <ID Model>
599

> <Smiles>
c1cc(Oc2cc(COC(=O)[C@H]3C(C)([C@@H]3C=C(Cl)Cl)C)ccc2)ccc1

$$$$
2,2',3,4,5,5'-Hexachlorobiphenyl
  SciTegic03251110552D

 18 19  0  0  0  0            999 V2000
    0.0000    0.0000    0.0000 C   0  0
    0.0000    0.0000    0.0000 C   0  0
    0.0000    0.0000    0.0000 C   0  0
    0.0000    0.0000    0.0000 C   0  0
    0.0000    0.0000    0.0000 C   0  0
    0.0000    0.0000    0.0000 C   0  0
    0.0000    0.0000    0.0000 Cl  0  0
    0.0000    0.0000    0.0000 Cl  0  0
    0.0000    0.0000    0.0000 C   0  0
    0.0000    0.0000    0.0000 C   0  0
    0.0000    0.0000    0.0000 C   0  0
    0.0000    0.0000    0.0000 C   0  0
    0.0000    0.0000    0.0000 C   0  0
    0.0000    0.0000    0.0000 C   0  0
    0.0000    0.0000    0.0000 Cl  0  0
    0.0000    0.0000    0.0000 Cl  0  0
    0.0000    0.0000    0.0000 Cl  0  0
    0.0000    0.0000    0.0000 Cl  0  0
  1  6  1  0
  1  2  2  3
  2  3  1  0
  2  9  1  0
  3  4  2  3
  3  8  1  0
  4  5  1  0
  5  6  2  3
  6  7  1  0
  9 14  1  0
  9 10  2  3
 10 11  1  0
 10 18  1  0
 11 12  2  3
 11 17  1  0
 12 13  1  0
 12 16  1  0
 13 14  2  3
 13 15  1  0
M  END
> <Name>
2,2',3,4,5,5'-Hexachlorobiphenyl

> <CAS>
052712-04-6

> <VED1>
4.186

> <nHAcc>
0

> <MAXDP>
2.041

> <CIC0>
3.024

> <Log Koc Exp>
5.95

> <Log Koc Pred>
4.98

> <Hat>
0.08

> <Hat Cutoff>
0.161

> <ID Model>
600

> <Smiles>
c1c(c(ccc1Cl)Cl)c1c(c(c(c(c1)Cl)Cl)Cl)Cl

$$$$
2,2',3,4,5,5',6-Heptachlorobiphenyl
  SciTegic03251110552D

 19 20  0  0  0  0            999 V2000
    0.0000    0.0000    0.0000 C   0  0
    0.0000    0.0000    0.0000 C   0  0
    0.0000    0.0000    0.0000 C   0  0
    0.0000    0.0000    0.0000 C   0  0
    0.0000    0.0000    0.0000 C   0  0
    0.0000    0.0000    0.0000 C   0  0
    0.0000    0.0000    0.0000 Cl  0  0
    0.0000    0.0000    0.0000 C   0  0
    0.0000    0.0000    0.0000 C   0  0
    0.0000    0.0000    0.0000 C   0  0
    0.0000    0.0000    0.0000 C   0  0
    0.0000    0.0000    0.0000 C   0  0
    0.0000    0.0000    0.0000 C   0  0
    0.0000    0.0000    0.0000 Cl  0  0
    0.0000    0.0000    0.0000 Cl  0  0
    0.0000    0.0000    0.0000 Cl  0  0
    0.0000    0.0000    0.0000 Cl  0  0
    0.0000    0.0000    0.0000 Cl  0  0
    0.0000    0.0000    0.0000 Cl  0  0
  1  6  1  0
  1  2  2  3
  2  3  1  0
  2 19  1  0
  3  4  2  3
  4  5  1  0
  4  8  1  0
  5  6  2  3
  5  7  1  0
  8 13  1  0
  8  9  2  3
  9 10  1  0
  9 18  1  0
 10 11  2  3
 10 17  1  0
 11 12  1  0
 11 16  1  0
 12 13  2  3
 12 15  1  0
 13 14  1  0
M  END
> <Name>
2,2',3,4,5,5',6-Heptachlorobiphenyl

> <CAS>
052712-05-7

> <VED1>
4.301

> <nHAcc>
0

> <MAXDP>
2.062

> <CIC0>
3.065

> <Log Koc Exp>
5.77

> <Log Koc Pred>
5.2

> <Hat>
0.092

> <Hat Cutoff>
0.161

> <ID Model>
601

> <Smiles>
c1c(cc(c(c1)Cl)c1c(c(c(c(c1Cl)Cl)Cl)Cl)Cl)Cl

$$$$
Ethalfluralin
  SciTegic03251110552D

 23 23  0  0  0  0            999 V2000
    0.0000    0.0000    0.0000 C   0  0
    0.0000    0.0000    0.0000 C   0  0
    0.0000    0.0000    0.0000 C   0  0
    0.0000    0.0000    0.0000 C   0  0
    0.0000    0.0000    0.0000 C   0  0
    0.0000    0.0000    0.0000 C   0  0
    0.0000    0.0000    0.0000 N   0  0
    0.0000    0.0000    0.0000 O   0  0
    0.0000    0.0000    0.0000 O   0  0
    0.0000    0.0000    0.0000 N   0  0
    0.0000    0.0000    0.0000 C   0  0
    0.0000    0.0000    0.0000 C   0  0
    0.0000    0.0000    0.0000 C   0  0
    0.0000    0.0000    0.0000 C   0  0
    0.0000    0.0000    0.0000 C   0  0
    0.0000    0.0000    0.0000 C   0  0
    0.0000    0.0000    0.0000 N   0  0
    0.0000    0.0000    0.0000 O   0  0
    0.0000    0.0000    0.0000 O   0  0
    0.0000    0.0000    0.0000 C   0  0
    0.0000    0.0000    0.0000 F   0  0
    0.0000    0.0000    0.0000 F   0  0
    0.0000    0.0000    0.0000 F   0  0
  1  6  1  0
  1  2  2  3
  2  3  1  0
  2 20  1  0
  3  4  2  3
  4  5  1  0
  4 17  1  0
  5  6  2  3
  5 10  1  0
  6  7  1  0
  7  8  1  0
  7  9  1  0
 10 11  1  0
 10 13  1  0
 11 12  1  0
 13 14  1  0
 14 15  2  0
 14 16  1  0
 17 18  1  0
 17 19  1  0
 20 21  1  0
 20 22  1  0
 20 23  1  0
M  END
> <Name>
Ethalfluralin

> <CAS>
055283-68-6

> <VED1>
4.716

> <nHAcc>
8

> <MAXDP>
4.827

> <CIC0>
3.214

> <Log Koc Exp>
3.8

> <Log Koc Pred>
2.47

> <Hat>
0.075

> <Hat Cutoff>
0.161

> <ID Model>
602

> <Smiles>
c1c(cc(c(c1N(O)O)N(CC)CC(=C)C)N(O)O)C(F)(F)F

$$$$
Dimethipin
  SciTegic03251110552D

 12 12  0  0  0  0            999 V2000
    0.0000    0.0000    0.0000 C   0  0
    0.0000    0.0000    0.0000 C   0  0
    0.0000    0.0000    0.0000 S   0  0
    0.0000    0.0000    0.0000 O   0  0
    0.0000    0.0000    0.0000 O   0  0
    0.0000    0.0000    0.0000 C   0  0
    0.0000    0.0000    0.0000 C   0  0
    0.0000    0.0000    0.0000 S   0  0
    0.0000    0.0000    0.0000 O   0  0
    0.0000    0.0000    0.0000 O   0  0
    0.0000    0.0000    0.0000 C   0  0
    0.0000    0.0000    0.0000 C   0  0
  1  8  1  0
  1  2  1  0
  2  3  1  0
  3  4  2  0
  3  5  2  0
  3  6  1  0
  6  7  2  3
  6 12  1  0
  7  8  1  0
  7 11  1  0
  8  9  2  0
  8 10  2  0
M  END
> <Name>
Dimethipin

> <CAS>
055290-64-7

> <VED1>
3.421

> <nHAcc>
4

> <MAXDP>
4.157

> <CIC0>
2.67

> <Log Koc Exp>
0.48

> <Log Koc Pred>
1.49

> <Hat>
0.024

> <Hat Cutoff>
0.161

> <ID Model>
603

> <Smiles>
C1CS(=O)(=O)C(=C(S1(=O)=O)C)C

$$$$
Triclopyr
  SciTegic03251110552D

 14 14  0  0  0  0            999 V2000
    0.0000    0.0000    0.0000 C   0  0
    0.0000    0.0000    0.0000 O   0  0
    0.0000    0.0000    0.0000 C   0  0
    0.0000    0.0000    0.0000 O   0  0
    0.0000    0.0000    0.0000 C   0  0
    0.0000    0.0000    0.0000 C   0  0
    0.0000    0.0000    0.0000 C   0  0
    0.0000    0.0000    0.0000 C   0  0
    0.0000    0.0000    0.0000 C   0  0
    0.0000    0.0000    0.0000 N   0  0
    0.0000    0.0000    0.0000 Cl  0  0
    0.0000    0.0000    0.0000 Cl  0  0
    0.0000    0.0000    0.0000 Cl  0  0
    0.0000    0.0000    0.0000 O   0  0
  1  2  2  0
  1  3  1  0
  1 14  1  0
  3  4  1  0
  4  5  1  0
  5 10  1  0
  5  6  2  3
  6  7  1  0
  6 13  1  0
  7  8  2  3
  8  9  1  0
  8 12  1  0
  9 10  2  3
  9 11  1  0
M  END
> <Name>
Triclopyr

> <CAS>
055335-06-3

> <VED1>
3.683

> <nHAcc>
4

> <MAXDP>
3.181

> <CIC0>
2.065

> <Log Koc Exp>
1.55

> <Log Koc Pred>
2.54

> <Hat>
0.047

> <Hat Cutoff>
0.161

> <ID Model>
604

> <Smiles>
C(=O)(COc1c(cc(c(n1)Cl)Cl)Cl)O

$$$$
Isouron
  SciTegic03251110552D

 15 15  0  0  0  0            999 V2000
    0.0000    0.0000    0.0000 N   0  0
    0.0000    0.0000    0.0000 C   0  0
    0.0000    0.0000    0.0000 C   0  0
    0.0000    0.0000    0.0000 C   0  0
    0.0000    0.0000    0.0000 O   0  0
    0.0000    0.0000    0.0000 N   0  0
    0.0000    0.0000    0.0000 C   0  0
    0.0000    0.0000    0.0000 C   0  0
    0.0000    0.0000    0.0000 C   0  0
    0.0000    0.0000    0.0000 C   0  0
    0.0000    0.0000    0.0000 C   0  0
    0.0000    0.0000    0.0000 C   0  0
    0.0000    0.0000    0.0000 C   0  0
    0.0000    0.0000    0.0000 O   0  0
    0.0000    0.0000    0.0000 N   0  0
  1  2  1  0
  1  3  1  0
  1  4  1  0
  4  5  2  0
  4  6  1  0
  6  7  1  0
  7 15  2  3
  7  8  1  0
  8  9  2  3
  9 10  1  0
  9 14  1  0
 10 11  1  0
 10 12  1  0
 10 13  1  0
 14 15  1  0
M  END
> <Name>
Isouron

> <CAS>
055861-78-4

> <VED1>
3.817

> <nHAcc>
5

> <MAXDP>
4.304

> <CIC0>
3.421

> <Log Koc Exp>
2.47

> <Log Koc Pred>
2.02

> <Hat>
0.025

> <Hat Cutoff>
0.161

> <ID Model>
605

> <Smiles>
N(C)(C)C(=O)Nc1cc(C(C)(C)C)on1

$$$$
Terbufos sulfone
  SciTegic03251110552D

 17 16  0  0  0  0            999 V2000
    0.0000    0.0000    0.0000 P   0  0
    0.0000    0.0000    0.0000 S   0  0
    0.0000    0.0000    0.0000 S   0  0
    0.0000    0.0000    0.0000 C   0  0
    0.0000    0.0000    0.0000 S   0  0
    0.0000    0.0000    0.0000 O   0  0
    0.0000    0.0000    0.0000 O   0  0
    0.0000    0.0000    0.0000 C   0  0
    0.0000    0.0000    0.0000 C   0  0
    0.0000    0.0000    0.0000 C   0  0
    0.0000    0.0000    0.0000 C   0  0
    0.0000    0.0000    0.0000 O   0  0
    0.0000    0.0000    0.0000 C   0  0
    0.0000    0.0000    0.0000 C   0  0
    0.0000    0.0000    0.0000 O   0  0
    0.0000    0.0000    0.0000 C   0  0
    0.0000    0.0000    0.0000 C   0  0
  1  2  2  0
  1  3  1  0
  1 12  1  0
  1 15  1  0
  3  4  1  0
  4  5  1  0
  5  6  2  0
  5  7  2  0
  5  8  1  0
  8  9  1  0
  8 10  1  0
  8 11  1  0
 12 13  1  0
 13 14  1  0
 15 16  1  0
 16 17  1  0
M  END
> <Name>
Terbufos sulfone

> <CAS>
056070-16-7

> <VED1>
4.06

> <nHAcc>
4

> <MAXDP>
4.947

> <CIC0>
3.514

> <Log Koc Exp>
2.18

> <Log Koc Pred>
2.31

> <Hat>
0.029

> <Hat Cutoff>
0.161

> <ID Model>
606

> <Smiles>
P(=S)(SCS(=O)(=O)C(C)(C)C)(OCC)OCC

$$$$
Metalaxyl
  SciTegic03251110552D

 21 21  0  0  0  0            999 V2000
    0.0000    0.0000    0.0000 C   0  0
    0.0000    0.0000    0.0000 C   0  0
    0.0000    0.0000    0.0000 C   0  0
    0.0000    0.0000    0.0000 C   0  0
    0.0000    0.0000    0.0000 C   0  0
    0.0000    0.0000    0.0000 C   0  0
    0.0000    0.0000    0.0000 C   0  0
    0.0000    0.0000    0.0000 N   0  0
    0.0000    0.0000    0.0000 C   0  0
    0.0000    0.0000    0.0000 H   0  0
    0.0000    0.0000    0.0000 C   0  0
    0.0000    0.0000    0.0000 C   0  0
    0.0000    0.0000    0.0000 O   0  0
    0.0000    0.0000    0.0000 O   0  0
    0.0000    0.0000    0.0000 C   0  0
    0.0000    0.0000    0.0000 C   0  0
    0.0000    0.0000    0.0000 O   0  0
    0.0000    0.0000    0.0000 C   0  0
    0.0000    0.0000    0.0000 O   0  0
    0.0000    0.0000    0.0000 C   0  0
    0.0000    0.0000    0.0000 C   0  0
  1  6  1  0
  1  2  2  3
  2  3  1  0
  3  4  2  3
  4  5  1  0
  4 21  1  0
  5  6  2  3
  5  8  1  0
  6  7  1  0
  8  9  1  0
  8 16  1  0
  9 10  1  0
  9 11  1  0
  9 12  1  0
 12 13  2  0
 12 14  1  0
 14 15  1  0
 16 17  2  0
 16 18  1  0
 18 19  1  0
 19 20  1  0
M  END
> <Name>
Metalaxyl

> <CAS>
057837-19-1

> <VED1>
4.398

> <nHAcc>
5

> <MAXDP>
5.303

> <CIC0>
3.874

> <Log Koc Exp>
1.63

> <Log Koc Pred>
2.45

> <Hat>
0.039

> <Hat Cutoff>
0.161

> <ID Model>
607

> <Smiles>
c1ccc(c(c1C)N([C@@H](C)C(=O)OC)C(=O)COC)C

$$$$
Tridiphane
  SciTegic03251110552D

 16 17  0  0  0  0            999 V2000
    0.0000    0.0000    0.0000 C   0  0
    0.0000    0.0000    0.0000 C   0  0
    0.0000    0.0000    0.0000 C   0  0
    0.0000    0.0000    0.0000 C   0  0
    0.0000    0.0000    0.0000 C   0  0
    0.0000    0.0000    0.0000 C   0  0
    0.0000    0.0000    0.0000 Cl  0  0
    0.0000    0.0000    0.0000 Cl  0  0
    0.0000    0.0000    0.0000 C   0  0
    0.0000    0.0000    0.0000 C   0  0
    0.0000    0.0000    0.0000 O   0  0
    0.0000    0.0000    0.0000 C   0  0
    0.0000    0.0000    0.0000 C   0  0
    0.0000    0.0000    0.0000 Cl  0  0
    0.0000    0.0000    0.0000 Cl  0  0
    0.0000    0.0000    0.0000 Cl  0  0
  1  6  1  0
  1  2  2  3
  2  3  1  0
  2  9  1  0
  3  4  2  3
  4  5  1  0
  4  8  1  0
  5  6  2  3
  6  7  1  0
  9 11  1  0
  9 10  1  0
  9 12  1  0
 10 11  1  0
 12 13  1  0
 13 14  1  0
 13 15  1  0
 13 16  1  0
M  END
> <Name>
Tridiphane

> <CAS>
058138-08-2

> <VED1>
3.946

> <nHAcc>
1

> <MAXDP>
1.898

> <CIC0>
2.803

> <Log Koc Exp>
3.75

> <Log Koc Pred>
4.25

> <Hat>
0.047

> <Hat Cutoff>
0.161

> <ID Model>
608

> <Smiles>
c1c(cc(cc1Cl)Cl)[C@@]1(CO1)CC(Cl)(Cl)Cl

$$$$
Thiodicarb
  SciTegic03251110552D

 21 20  0  0  0  0            999 V2000
    0.0000    0.0000    0.0000 C   0  0
    0.0000    0.0000    0.0000 S   0  0
    0.0000    0.0000    0.0000 C   0  0
    0.0000    0.0000    0.0000 N   0  0
    0.0000    0.0000    0.0000 O   0  0
    0.0000    0.0000    0.0000 C   0  0
    0.0000    0.0000    0.0000 O   0  0
    0.0000    0.0000    0.0000 N   0  0
    0.0000    0.0000    0.0000 S   0  0
    0.0000    0.0000    0.0000 N   0  0
    0.0000    0.0000    0.0000 C   0  0
    0.0000    0.0000    0.0000 C   0  0
    0.0000    0.0000    0.0000 O   0  0
    0.0000    0.0000    0.0000 O   0  0
    0.0000    0.0000    0.0000 N   0  0
    0.0000    0.0000    0.0000 C   0  0
    0.0000    0.0000    0.0000 C   0  0
    0.0000    0.0000    0.0000 S   0  0
    0.0000    0.0000    0.0000 C   0  0
    0.0000    0.0000    0.0000 C   0  0
    0.0000    0.0000    0.0000 C   0  0
  1  2  1  0
  2  3  1  0
  3  4  2  3
  3 21  1  0
  4  5  1  0
  5  6  1  0
  6  7  2  0
  6  8  1  0
  8  9  1  0
  8 20  1  0
  9 10  1  0
 10 11  1  0
 10 12  1  0
 12 13  2  0
 12 14  1  0
 14 15  1  0
 15 16  2  3
 16 17  1  0
 16 18  1  0
 18 19  1  0
M  END
> <Name>
Thiodicarb

> <CAS>
059669-26-0

> <VED1>
4.505

> <nHAcc>
8

> <MAXDP>
4.591

> <CIC0>
3.309

> <Log Koc Exp>
2.49

> <Log Koc Pred>
2.07

> <Hat>
0.077

> <Hat Cutoff>
0.161

> <ID Model>
609

> <Smiles>
CSC(=NOC(=O)N(SN(C)C(=O)ON=C(C)SC)C)C

$$$$
Fluridone
  SciTegic03251110552D

 24 26  0  0  0  0            999 V2000
    0.0000    0.0000    0.0000 C   0  0
    0.0000    0.0000    0.0000 C   0  0
    0.0000    0.0000    0.0000 C   0  0
    0.0000    0.0000    0.0000 C   0  0
    0.0000    0.0000    0.0000 C   0  0
    0.0000    0.0000    0.0000 C   0  0
    0.0000    0.0000    0.0000 C   0  0
    0.0000    0.0000    0.0000 C   0  0
    0.0000    0.0000    0.0000 C   0  0
    0.0000    0.0000    0.0000 N   0  0
    0.0000    0.0000    0.0000 C   0  0
    0.0000    0.0000    0.0000 C   0  0
    0.0000    0.0000    0.0000 C   0  0
    0.0000    0.0000    0.0000 O   0  0
    0.0000    0.0000    0.0000 C   0  0
    0.0000    0.0000    0.0000 C   0  0
    0.0000    0.0000    0.0000 C   0  0
    0.0000    0.0000    0.0000 C   0  0
    0.0000    0.0000    0.0000 C   0  0
    0.0000    0.0000    0.0000 C   0  0
    0.0000    0.0000    0.0000 C   0  0
    0.0000    0.0000    0.0000 F   0  0
    0.0000    0.0000    0.0000 F   0  0
    0.0000    0.0000    0.0000 F   0  0
  1  2  1  0
  1 22  1  0
  1 23  1  0
  1 24  1  0
  2  7  1  0
  2  3  2  3
  3  4  1  0
  4  5  2  3
  5  6  1  0
  6  7  2  3
  6  8  1  0
  8 13  1  0
  8  9  2  3
  9 10  1  0
 10 11  1  0
 10 21  1  0
 11 12  2  3
 12 13  1  0
 12 15  1  0
 13 14  2  0
 15 20  1  0
 15 16  2  3
 16 17  1  0
 17 18  2  3
 18 19  1  0
 19 20  2  3
M  END
> <Name>
Fluridone

> <CAS>
059756-60-4

> <VED1>
4.83

> <nHAcc>
5

> <MAXDP>
5.788

> <CIC0>
3.652

> <Log Koc Exp>
2.75

> <Log Koc Pred>
3.28

> <Hat>
0.051

> <Hat Cutoff>
0.161

> <ID Model>
610

> <Smiles>
C(c1cccc(c1)c1cn(cc(c1=O)c1ccccc1)C)(F)(F)F

$$$$
Fenarimol
  SciTegic03251110552D

 22 24  0  0  0  0            999 V2000
    0.0000    0.0000    0.0000 C   0  0
    0.0000    0.0000    0.0000 C   0  0
    0.0000    0.0000    0.0000 C   0  0
    0.0000    0.0000    0.0000 C   0  0
    0.0000    0.0000    0.0000 C   0  0
    0.0000    0.0000    0.0000 C   0  0
    0.0000    0.0000    0.0000 Cl  0  0
    0.0000    0.0000    0.0000 C   0  0
    0.0000    0.0000    0.0000 C   0  0
    0.0000    0.0000    0.0000 C   0  0
    0.0000    0.0000    0.0000 C   0  0
    0.0000    0.0000    0.0000 C   0  0
    0.0000    0.0000    0.0000 C   0  0
    0.0000    0.0000    0.0000 C   0  0
    0.0000    0.0000    0.0000 Cl  0  0
    0.0000    0.0000    0.0000 C   0  0
    0.0000    0.0000    0.0000 C   0  0
    0.0000    0.0000    0.0000 N   0  0
    0.0000    0.0000    0.0000 C   0  0
    0.0000    0.0000    0.0000 N   0  0
    0.0000    0.0000    0.0000 C   0  0
    0.0000    0.0000    0.0000 O   0  0
  1  6  1  0
  1  2  2  3
  2  3  1  0
  3  4  2  3
  3  8  1  0
  4  5  1  0
  5  6  2  3
  6  7  1  0
  8  9  1  0
  8 16  1  0
  8 22  1  0
  9 14  1  0
  9 10  2  3
 10 11  1  0
 10 15  1  0
 11 12  2  3
 12 13  1  0
 13 14  2  3
 16 21  1  0
 16 17  2  3
 17 18  1  0
 18 19  2  3
 19 20  1  0
 20 21  2  3
M  END
> <Name>
Fenarimol

> <CAS>
060168-88-9

> <VED1>
4.613

> <nHAcc>
3

> <MAXDP>
5.489

> <CIC0>
3.427

> <Log Koc Exp>
2.95

> <Log Koc Pred>
3.67

> <Hat>
0.074

> <Hat Cutoff>
0.161

> <ID Model>
611

> <Smiles>
c1cc(ccc1Cl)[C@](c1c(cccc1)Cl)(c1cncnc1)O

$$$$
Fluorochloridone
  SciTegic03251110552D

 21 22  0  0  0  0            999 V2000
    0.0000    0.0000    0.0000 C   0  0
    0.0000    0.0000    0.0000 C   0  0
    0.0000    0.0000    0.0000 H   0  0
    0.0000    0.0000    0.0000 C   0  0
    0.0000    0.0000    0.0000 H   0  0
    0.0000    0.0000    0.0000 C   0  0
    0.0000    0.0000    0.0000 O   0  0
    0.0000    0.0000    0.0000 N   0  0
    0.0000    0.0000    0.0000 C   0  0
    0.0000    0.0000    0.0000 C   0  0
    0.0000    0.0000    0.0000 C   0  0
    0.0000    0.0000    0.0000 C   0  0
    0.0000    0.0000    0.0000 C   0  0
    0.0000    0.0000    0.0000 C   0  0
    0.0000    0.0000    0.0000 C   0  0
    0.0000    0.0000    0.0000 F   0  0
    0.0000    0.0000    0.0000 F   0  0
    0.0000    0.0000    0.0000 F   0  0
    0.0000    0.0000    0.0000 Cl  0  0
    0.0000    0.0000    0.0000 C   0  0
    0.0000    0.0000    0.0000 Cl  0  0
  1  8  1  0
  1  2  1  0
  2  3  1  0
  2  4  1  0
  2 20  1  0
  4  5  1  0
  4  6  1  0
  4 19  1  0
  6  7  2  0
  6  8  1  0
  8  9  1  0
  9 14  1  0
  9 10  2  3
 10 11  1  0
 11 12  2  3
 12 13  1  0
 13 14  2  3
 13 15  1  0
 15 16  1  0
 15 17  1  0
 15 18  1  0
 20 21  1  0
M  END
> <Name>
Fluorochloridone

> <CAS>
061213-25-0

> <VED1>
4.297

> <nHAcc>
5

> <MAXDP>
4.89

> <CIC0>
2.862

> <Log Koc Exp>
2.55

> <Log Koc Pred>
2.7

> <Hat>
0.035

> <Hat Cutoff>
0.161

> <ID Model>
613

> <Smiles>
C1[C@H]([C@H](C(=O)N1c1cccc(c1)C(F)(F)F)Cl)CCl

$$$$
Flumetralin
  SciTegic03251110552D

 28 29  0  0  0  0            999 V2000
    0.0000    0.0000    0.0000 C   0  0
    0.0000    0.0000    0.0000 C   0  0
    0.0000    0.0000    0.0000 C   0  0
    0.0000    0.0000    0.0000 C   0  0
    0.0000    0.0000    0.0000 C   0  0
    0.0000    0.0000    0.0000 C   0  0
    0.0000    0.0000    0.0000 N   0  0
    0.0000    0.0000    0.0000 O   0  0
    0.0000    0.0000    0.0000 O   0  0
    0.0000    0.0000    0.0000 N   0  0
    0.0000    0.0000    0.0000 C   0  0
    0.0000    0.0000    0.0000 C   0  0
    0.0000    0.0000    0.0000 C   0  0
    0.0000    0.0000    0.0000 C   0  0
    0.0000    0.0000    0.0000 C   0  0
    0.0000    0.0000    0.0000 C   0  0
    0.0000    0.0000    0.0000 C   0  0
    0.0000    0.0000    0.0000 Cl  0  0
    0.0000    0.0000    0.0000 F   0  0
    0.0000    0.0000    0.0000 C   0  0
    0.0000    0.0000    0.0000 C   0  0
    0.0000    0.0000    0.0000 N   0  0
    0.0000    0.0000    0.0000 O   0  0
    0.0000    0.0000    0.0000 O   0  0
    0.0000    0.0000    0.0000 C   0  0
    0.0000    0.0000    0.0000 F   0  0
    0.0000    0.0000    0.0000 F   0  0
    0.0000    0.0000    0.0000 F   0  0
  1  6  1  0
  1  2  2  3
  1 25  1  0
  2  3  1  0
  3  4  2  3
  3 22  1  0
  4  5  1  0
  4 10  1  0
  5  6  2  3
  5  7  1  0
  7  8  1  0
  7  9  1  0
 10 11  1  0
 10 20  1  0
 11 12  1  0
 12 17  1  0
 12 13  2  3
 13 14  1  0
 13 19  1  0
 14 15  2  3
 15 16  1  0
 16 17  2  3
 17 18  1  0
 20 21  1  0
 22 23  1  0
 22 24  1  0
 25 26  1  0
 25 27  1  0
 25 28  1  0
M  END
> <Name>
Flumetralin

> <CAS>
062924-70-3

> <VED1>
5.215

> <nHAcc>
9

> <MAXDP>
6.074

> <CIC0>
3.194

> <Log Koc Exp>
4

> <Log Koc Pred>
2.8

> <Hat>
0.108

> <Hat Cutoff>
0.161

> <ID Model>
614

> <Smiles>
c1(cc(c(c(c1)N(O)O)N(Cc1c(cccc1Cl)F)CC)N(O)O)C(F)(F)F

$$$$
Chlorosulfuron
  SciTegic03251110552D

 23 24  0  0  0  0            999 V2000
    0.0000    0.0000    0.0000 C   0  0
    0.0000    0.0000    0.0000 C   0  0
    0.0000    0.0000    0.0000 C   0  0
    0.0000    0.0000    0.0000 C   0  0
    0.0000    0.0000    0.0000 C   0  0
    0.0000    0.0000    0.0000 C   0  0
    0.0000    0.0000    0.0000 S   0  0
    0.0000    0.0000    0.0000 O   0  0
    0.0000    0.0000    0.0000 O   0  0
    0.0000    0.0000    0.0000 N   0  0
    0.0000    0.0000    0.0000 C   0  0
    0.0000    0.0000    0.0000 O   0  0
    0.0000    0.0000    0.0000 N   0  0
    0.0000    0.0000    0.0000 C   0  0
    0.0000    0.0000    0.0000 N   0  0
    0.0000    0.0000    0.0000 C   0  0
    0.0000    0.0000    0.0000 N   0  0
    0.0000    0.0000    0.0000 C   0  0
    0.0000    0.0000    0.0000 N   0  0
    0.0000    0.0000    0.0000 C   0  0
    0.0000    0.0000    0.0000 O   0  0
    0.0000    0.0000    0.0000 C   0  0
    0.0000    0.0000    0.0000 Cl  0  0
  1  6  1  0
  1  2  2  3
  2  3  1  0
  3  4  2  3
  3 23  1  0
  4  5  1  0
  4  7  1  0
  5  6  2  3
  7  8  2  0
  7  9  2  0
  7 10  1  0
 10 11  1  0
 11 12  2  0
 11 13  1  0
 13 14  1  0
 14 19  1  0
 14 15  2  3
 15 16  1  0
 16 17  2  3
 16 21  1  0
 17 18  1  0
 18 19  2  3
 18 20  1  0
 21 22  1  0
M  END
> <Name>
Chlorosulfuron

> <CAS>
064902-72-3

> <VED1>
4.734

> <nHAcc>
9

> <MAXDP>
5.109

> <CIC0>
3.019

> <Log Koc Exp>
1.61

> <Log Koc Pred>
2.14

> <Hat>
0.104

> <Hat Cutoff>
0.161

> <ID Model>
616

> <Smiles>
c1cc(c(cc1)S(=O)(=O)NC(=O)Nc1nc(nc(n1)C)OC)Cl

$$$$
Cyromazine
  SciTegic03251110552D

 12 13  0  0  0  0            999 V2000
    0.0000    0.0000    0.0000 N   0  0
    0.0000    0.0000    0.0000 C   0  0
    0.0000    0.0000    0.0000 N   0  0
    0.0000    0.0000    0.0000 C   0  0
    0.0000    0.0000    0.0000 N   0  0
    0.0000    0.0000    0.0000 C   0  0
    0.0000    0.0000    0.0000 N   0  0
    0.0000    0.0000    0.0000 C   0  0
    0.0000    0.0000    0.0000 C   0  0
    0.0000    0.0000    0.0000 C   0  0
    0.0000    0.0000    0.0000 N   0  0
    0.0000    0.0000    0.0000 N   0  0
  1  6  1  0
  1  2  2  3
  2  3  1  0
  2 12  1  0
  3  4  2  3
  4  5  1  0
  4 11  1  0
  5  6  2  3
  6  7  1  0
  7  8  1  0
  8 10  1  0
  8  9  1  0
  9 10  1  0
M  END
> <Name>
Cyromazine

> <CAS>
066215-27-8

> <VED1>
3.419

> <nHAcc>
6

> <MAXDP>
1.373

> <CIC0>
2.92

> <Log Koc Exp>
2.3

> <Log Koc Pred>
1.58

> <Hat>
0.153

> <Hat Cutoff>
0.161

> <ID Model>
617

> <Smiles>
n1c(nc(nc1NC1CC1)N)N

$$$$
Esfenvalerate
  SciTegic03251110552D

 32 34  0  0  0  0            999 V2000
    0.0000    0.0000    0.0000 C   0  0
    0.0000    0.0000    0.0000 C   0  0
    0.0000    0.0000    0.0000 C   0  0
    0.0000    0.0000    0.0000 C   0  0
    0.0000    0.0000    0.0000 C   0  0
    0.0000    0.0000    0.0000 C   0  0
    0.0000    0.0000    0.0000 Cl  0  0
    0.0000    0.0000    0.0000 C   0  0
    0.0000    0.0000    0.0000 H   0  0
    0.0000    0.0000    0.0000 C   0  0
    0.0000    0.0000    0.0000 C   0  0
    0.0000    0.0000    0.0000 C   0  0
    0.0000    0.0000    0.0000 C   0  0
    0.0000    0.0000    0.0000 O   0  0
    0.0000    0.0000    0.0000 O   0  0
    0.0000    0.0000    0.0000 C   0  0
    0.0000    0.0000    0.0000 H   0  0
    0.0000    0.0000    0.0000 C   0  0
    0.0000    0.0000    0.0000 N   0  0
    0.0000    0.0000    0.0000 C   0  0
    0.0000    0.0000    0.0000 C   0  0
    0.0000    0.0000    0.0000 C   0  0
    0.0000    0.0000    0.0000 C   0  0
    0.0000    0.0000    0.0000 C   0  0
    0.0000    0.0000    0.0000 C   0  0
    0.0000    0.0000    0.0000 O   0  0
    0.0000    0.0000    0.0000 C   0  0
    0.0000    0.0000    0.0000 C   0  0
    0.0000    0.0000    0.0000 C   0  0
    0.0000    0.0000    0.0000 C   0  0
    0.0000    0.0000    0.0000 C   0  0
    0.0000    0.0000    0.0000 C   0  0
  1  6  1  0
  1  2  2  3
  2  3  1  0
  3  4  2  3
  3  8  1  0
  4  5  1  0
  5  6  2  3
  6  7  1  0
  8  9  1  0
  8 10  1  0
  8 13  1  0
 10 11  1  0
 10 12  1  0
 13 14  2  0
 13 15  1  0
 15 16  1  0
 16 17  1  0
 16 18  1  0
 16 20  1  0
 18 19  3  0
 20 25  1  0
 20 21  2  3
 21 22  1  0
 22 23  2  3
 23 24  1  0
 24 25  2  3
 24 26  1  0
 26 27  1  0
 27 32  1  0
 27 28  2  3
 28 29  1  0
 29 30  2  3
 30 31  1  0
 31 32  2  3
M  END
> <Name>
Esfenvalerate

> <CAS>
066230-04-4

> <VED1>
5.394

> <nHAcc>
4

> <MAXDP>
5.951

> <CIC0>
4.211

> <Log Koc Exp>
3.72

> <Log Koc Pred>
4.57

> <Hat>
0.102

> <Hat Cutoff>
0.161

> <ID Model>
618

> <Smiles>
c1cc(ccc1Cl)[C@@H](C(C)C)C(=O)O[C@H](C#N)c1cccc(c1)Oc1ccccc1

$$$$
Fenoxaprop-Ethyl
  SciTegic03251110552D

 26 28  0  0  0  0            999 V2000
    0.0000    0.0000    0.0000 C   0  0
    0.0000    0.0000    0.0000 C   0  0
    0.0000    0.0000    0.0000 C   0  0
    0.0000    0.0000    0.0000 C   0  0
    0.0000    0.0000    0.0000 C   0  0
    0.0000    0.0000    0.0000 C   0  0
    0.0000    0.0000    0.0000 O   0  0
    0.0000    0.0000    0.0000 C   0  0
    0.0000    0.0000    0.0000 O   0  0
    0.0000    0.0000    0.0000 C   0  0
    0.0000    0.0000    0.0000 C   0  0
    0.0000    0.0000    0.0000 N   0  0
    0.0000    0.0000    0.0000 C   0  0
    0.0000    0.0000    0.0000 C   0  0
    0.0000    0.0000    0.0000 C   0  0
    0.0000    0.0000    0.0000 C   0  0
    0.0000    0.0000    0.0000 Cl  0  0
    0.0000    0.0000    0.0000 O   0  0
    0.0000    0.0000    0.0000 C   0  0
    0.0000    0.0000    0.0000 H   0  0
    0.0000    0.0000    0.0000 C   0  0
    0.0000    0.0000    0.0000 C   0  0
    0.0000    0.0000    0.0000 O   0  0
    0.0000    0.0000    0.0000 O   0  0
    0.0000    0.0000    0.0000 C   0  0
    0.0000    0.0000    0.0000 C   0  0
  1  6  1  0
  1  2  2  3
  1 18  1  0
  2  3  1  0
  3  4  2  3
  4  5  1  0
  4  7  1  0
  5  6  2  3
  7  8  1  0
  8 12  2  3
  8  9  1  0
  9 10  1  0
 10 16  1  0
 10 11  2  3
 11 12  1  0
 11 13  1  0
 13 14  2  3
 14 15  1  0
 15 16  2  3
 15 17  1  0
 18 19  1  0
 19 20  1  0
 19 21  1  0
 19 22  1  0
 22 23  2  0
 22 24  1  0
 24 25  1  0
 25 26  1  0
M  END
> <Name>
Fenoxaprop-Ethyl

> <CAS>
066441-23-4

> <VED1>
4.921

> <nHAcc>
6

> <MAXDP>
4.563

> <CIC0>
3.675

> <Log Koc Exp>
3.98

> <Log Koc Pred>
3.84

> <Hat>
0.042

> <Hat Cutoff>
0.161

> <ID Model>
619

> <Smiles>
c1(ccc(cc1)Oc1oc2c(n1)ccc(c2)Cl)O[C@H](C)C(=O)OCC

$$$$
Tralomethrin
  SciTegic03251110552D

 34 36  0  0  0  0            999 V2000
    0.0000    0.0000    0.0000 C   0  0
    0.0000    0.0000    0.0000 C   0  0
    0.0000    0.0000    0.0000 C   0  0
    0.0000    0.0000    0.0000 C   0  0
    0.0000    0.0000    0.0000 C   0  0
    0.0000    0.0000    0.0000 C   0  0
    0.0000    0.0000    0.0000 O   0  0
    0.0000    0.0000    0.0000 C   0  0
    0.0000    0.0000    0.0000 C   0  0
    0.0000    0.0000    0.0000 C   0  0
    0.0000    0.0000    0.0000 C   0  0
    0.0000    0.0000    0.0000 C   0  0
    0.0000    0.0000    0.0000 C   0  0
    0.0000    0.0000    0.0000 C   0  0
    0.0000    0.0000    0.0000 H   0  0
    0.0000    0.0000    0.0000 C   0  0
    0.0000    0.0000    0.0000 N   0  0
    0.0000    0.0000    0.0000 O   0  0
    0.0000    0.0000    0.0000 C   0  0
    0.0000    0.0000    0.0000 O   0  0
    0.0000    0.0000    0.0000 C   0  0
    0.0000    0.0000    0.0000 H   0  0
    0.0000    0.0000    0.0000 C   0  0
    0.0000    0.0000    0.0000 C   0  0
    0.0000    0.0000    0.0000 H   0  0
    0.0000    0.0000    0.0000 C   0  0
    0.0000    0.0000    0.0000 H   0  0
    0.0000    0.0000    0.0000 C   0  0
    0.0000    0.0000    0.0000 Br  0  0
    0.0000    0.0000    0.0000 Br  0  0
    0.0000    0.0000    0.0000 Br  0  0
    0.0000    0.0000    0.0000 Br  0  0
    0.0000    0.0000    0.0000 C   0  0
    0.0000    0.0000    0.0000 C   0  0
  1  6  1  0
  1  2  2  3
  2  3  1  0
  3  4  2  3
  4  5  1  0
  4  7  1  0
  5  6  2  3
  7  8  1  0
  8 13  1  0
  8  9  2  3
  9 10  1  0
 10 11  2  3
 11 12  1  0
 12 13  2  3
 12 14  1  0
 14 15  1  0
 14 16  1  0
 14 18  1  0
 16 17  3  0
 18 19  1  0
 19 20  2  0
 19 21  1  0
 21 22  1  0
 21 24  1  0
 21 23  1  0
 23 24  1  0
 23 33  1  0
 23 34  1  0
 24 25  1  0
 24 26  1  0
 26 27  1  0
 26 28  1  0
 26 32  1  0
 28 29  1  0
 28 30  1  0
 28 31  1  0
M  END
> <Name>
Tralomethrin

> <CAS>
066841-25-6

> <VED1>
5.398

> <nHAcc>
4

> <MAXDP>
5.91

> <CIC0>
3.91

> <Log Koc Exp>
5

> <Log Koc Pred>
4.69

> <Hat>
0.113

> <Hat Cutoff>
0.161

> <ID Model>
620

> <Smiles>
c1ccc(cc1)Oc1cccc(c1)[C@H](C#N)OC(=O)[C@@H]1C([C@H]1[C@@H](C(Br)(Br)Br)Br)(C)C

$$$$
Prochloraz
  SciTegic03251110552D

 23 24  0  0  0  0            999 V2000
    0.0000    0.0000    0.0000 C   0  0
    0.0000    0.0000    0.0000 C   0  0
    0.0000    0.0000    0.0000 C   0  0
    0.0000    0.0000    0.0000 C   0  0
    0.0000    0.0000    0.0000 C   0  0
    0.0000    0.0000    0.0000 C   0  0
    0.0000    0.0000    0.0000 Cl  0  0
    0.0000    0.0000    0.0000 Cl  0  0
    0.0000    0.0000    0.0000 O   0  0
    0.0000    0.0000    0.0000 C   0  0
    0.0000    0.0000    0.0000 C   0  0
    0.0000    0.0000    0.0000 N   0  0
    0.0000    0.0000    0.0000 C   0  0
    0.0000    0.0000    0.0000 C   0  0
    0.0000    0.0000    0.0000 C   0  0
    0.0000    0.0000    0.0000 C   0  0
    0.0000    0.0000    0.0000 O   0  0
    0.0000    0.0000    0.0000 N   0  0
    0.0000    0.0000    0.0000 C   0  0
    0.0000    0.0000    0.0000 C   0  0
    0.0000    0.0000    0.0000 N   0  0
    0.0000    0.0000    0.0000 C   0  0
    0.0000    0.0000    0.0000 Cl  0  0
  1  6  1  0
  1  2  2  3
  2  3  1  0
  2 23  1  0
  3  4  2  3
  3  9  1  0
  4  5  1  0
  4  8  1  0
  5  6  2  3
  6  7  1  0
  9 10  1  0
 10 11  1  0
 11 12  1  0
 12 13  1  0
 12 16  1  0
 13 14  1  0
 14 15  1  0
 16 17  2  0
 16 18  1  0
 18 22  1  0
 18 19  1  0
 19 20  2  3
 20 21  1  0
 21 22  2  3
M  END
> <Name>
Prochloraz

> <CAS>
067747-09-5

> <VED1>
4.733

> <nHAcc>
4

> <MAXDP>
5.341

> <CIC0>
3.439

> <Log Koc Exp>
2.7

> <Log Koc Pred>
3.62

> <Hat>
0.055

> <Hat Cutoff>
0.161

> <ID Model>
621

> <Smiles>
c1c(c(c(cc1Cl)Cl)OCCN(CCC)C(=O)n1ccnc1)Cl

$$$$
Cyfluthrin
  SciTegic03251110552D

 32 34  0  0  0  0            999 V2000
    0.0000    0.0000    0.0000 C   0  0
    0.0000    0.0000    0.0000 C   0  0
    0.0000    0.0000    0.0000 C   0  0
    0.0000    0.0000    0.0000 C   0  0
    0.0000    0.0000    0.0000 C   0  0
    0.0000    0.0000    0.0000 C   0  0
    0.0000    0.0000    0.0000 O   0  0
    0.0000    0.0000    0.0000 C   0  0
    0.0000    0.0000    0.0000 C   0  0
    0.0000    0.0000    0.0000 C   0  0
    0.0000    0.0000    0.0000 C   0  0
    0.0000    0.0000    0.0000 H   0  0
    0.0000    0.0000    0.0000 O   0  0
    0.0000    0.0000    0.0000 C   0  0
    0.0000    0.0000    0.0000 O   0  0
    0.0000    0.0000    0.0000 C   0  0
    0.0000    0.0000    0.0000 H   0  0
    0.0000    0.0000    0.0000 C   0  0
    0.0000    0.0000    0.0000 C   0  0
    0.0000    0.0000    0.0000 C   0  0
    0.0000    0.0000    0.0000 C   0  0
    0.0000    0.0000    0.0000 H   0  0
    0.0000    0.0000    0.0000 C   0  0
    0.0000    0.0000    0.0000 C   0  0
    0.0000    0.0000    0.0000 Cl  0  0
    0.0000    0.0000    0.0000 Cl  0  0
    0.0000    0.0000    0.0000 C   0  0
    0.0000    0.0000    0.0000 N   0  0
    0.0000    0.0000    0.0000 C   0  0
    0.0000    0.0000    0.0000 C   0  0
    0.0000    0.0000    0.0000 C   0  0
    0.0000    0.0000    0.0000 F   0  0
  1  6  1  0
  1  2  2  3
  1  7  1  0
  2  3  1  0
  3  4  2  3
  4  5  1  0
  5  6  2  3
  7  8  1  0
  8 31  1  0
  8  9  2  3
  9 10  1  0
 10 11  1  0
 10 29  2  3
 11 12  1  0
 11 13  1  0
 11 27  1  0
 13 14  1  0
 14 15  2  0
 14 16  1  0
 16 17  1  0
 16 21  1  0
 16 18  1  0
 18 19  1  0
 18 20  1  0
 18 21  1  0
 21 22  1  0
 21 23  1  0
 23 24  2  3
 24 25  1  0
 24 26  1  0
 27 28  3  0
 29 30  1  0
 30 31  2  3
 31 32  1  0
M  END
> <Name>
Cyfluthrin

> <CAS>
068359-37-5

> <VED1>
5.302

> <nHAcc>
5

> <MAXDP>
6.151

> <CIC0>
3.828

> <Log Koc Exp>
5

> <Log Koc Pred>
4.1

> <Hat>
0.089

> <Hat Cutoff>
0.161

> <ID Model>
622

> <Smiles>
c1(ccccc1)Oc1cc([C@H](OC(=O)[C@@H]2C(C)(C)[C@H]2C=C(Cl)Cl)C#N)ccc1F

$$$$
Fluazifop-butyl
  SciTegic03251110552D

 28 29  0  0  0  0            999 V2000
    0.0000    0.0000    0.0000 C   0  0
    0.0000    0.0000    0.0000 C   0  0
    0.0000    0.0000    0.0000 N   0  0
    0.0000    0.0000    0.0000 C   0  0
    0.0000    0.0000    0.0000 C   0  0
    0.0000    0.0000    0.0000 C   0  0
    0.0000    0.0000    0.0000 O   0  0
    0.0000    0.0000    0.0000 C   0  0
    0.0000    0.0000    0.0000 C   0  0
    0.0000    0.0000    0.0000 C   0  0
    0.0000    0.0000    0.0000 C   0  0
    0.0000    0.0000    0.0000 C   0  0
    0.0000    0.0000    0.0000 C   0  0
    0.0000    0.0000    0.0000 O   0  0
    0.0000    0.0000    0.0000 C   0  0
    0.0000    0.0000    0.0000 H   0  0
    0.0000    0.0000    0.0000 C   0  0
    0.0000    0.0000    0.0000 C   0  0
    0.0000    0.0000    0.0000 O   0  0
    0.0000    0.0000    0.0000 O   0  0
    0.0000    0.0000    0.0000 C   0  0
    0.0000    0.0000    0.0000 C   0  0
    0.0000    0.0000    0.0000 C   0  0
    0.0000    0.0000    0.0000 C   0  0
    0.0000    0.0000    0.0000 C   0  0
    0.0000    0.0000    0.0000 F   0  0
    0.0000    0.0000    0.0000 F   0  0
    0.0000    0.0000    0.0000 F   0  0
  1  6  1  0
  1  2  2  3
  1 25  1  0
  2  3  1  0
  3  4  2  3
  4  5  1  0
  4  7  1  0
  5  6  2  3
  7  8  1  0
  8 13  1  0
  8  9  2  3
  9 10  1  0
 10 11  2  3
 11 12  1  0
 11 14  1  0
 12 13  2  3
 14 15  1  0
 15 16  1  0
 15 17  1  0
 15 18  1  0
 18 19  2  0
 18 20  1  0
 20 21  1  0
 21 22  1  0
 22 23  1  0
 23 24  1  0
 25 26  1  0
 25 27  1  0
 25 28  1  0
M  END
> <Name>
Fluazifop-butyl

> <CAS>
069806-50-4

> <VED1>
5.105

> <nHAcc>
8

> <MAXDP>
4.768

> <CIC0>
3.828

> <Log Koc Exp>
2.76

> <Log Koc Pred>
3.1

> <Hat>
0.082

> <Hat Cutoff>
0.161

> <ID Model>
623

> <Smiles>
c1(cnc(cc1)Oc1ccc(cc1)O[C@H](C)C(=O)OCCCC)C(F)(F)F

$$$$
Flucythrinate
  SciTegic03251110552D

 35 37  0  0  0  0            999 V2000
    0.0000    0.0000    0.0000 C   0  0
    0.0000    0.0000    0.0000 C   0  0
    0.0000    0.0000    0.0000 C   0  0
    0.0000    0.0000    0.0000 C   0  0
    0.0000    0.0000    0.0000 C   0  0
    0.0000    0.0000    0.0000 C   0  0
    0.0000    0.0000    0.0000 O   0  0
    0.0000    0.0000    0.0000 C   0  0
    0.0000    0.0000    0.0000 C   0  0
    0.0000    0.0000    0.0000 C   0  0
    0.0000    0.0000    0.0000 C   0  0
    0.0000    0.0000    0.0000 C   0  0
    0.0000    0.0000    0.0000 C   0  0
    0.0000    0.0000    0.0000 C   0  0
    0.0000    0.0000    0.0000 H   0  0
    0.0000    0.0000    0.0000 C   0  0
    0.0000    0.0000    0.0000 N   0  0
    0.0000    0.0000    0.0000 O   0  0
    0.0000    0.0000    0.0000 C   0  0
    0.0000    0.0000    0.0000 O   0  0
    0.0000    0.0000    0.0000 C   0  0
    0.0000    0.0000    0.0000 H   0  0
    0.0000    0.0000    0.0000 C   0  0
    0.0000    0.0000    0.0000 C   0  0
    0.0000    0.0000    0.0000 C   0  0
    0.0000    0.0000    0.0000 C   0  0
    0.0000    0.0000    0.0000 C   0  0
    0.0000    0.0000    0.0000 C   0  0
    0.0000    0.0000    0.0000 C   0  0
    0.0000    0.0000    0.0000 C   0  0
    0.0000    0.0000    0.0000 C   0  0
    0.0000    0.0000    0.0000 O   0  0
    0.0000    0.0000    0.0000 C   0  0
    0.0000    0.0000    0.0000 F   0  0
    0.0000    0.0000    0.0000 F   0  0
  1  6  1  0
  1  2  2  3
  2  3  1  0
  3  4  2  3
  4  5  1  0
  4  7  1  0
  5  6  2  3
  7  8  1  0
  8 13  1  0
  8  9  2  3
  9 10  1  0
 10 11  2  3
 11 12  1  0
 12 13  2  3
 12 14  1  0
 14 15  1  0
 14 16  1  0
 14 18  1  0
 16 17  3  0
 18 19  1  0
 19 20  2  0
 19 21  1  0
 21 22  1  0
 21 23  1  0
 21 26  1  0
 23 24  1  0
 23 25  1  0
 26 31  1  0
 26 27  2  3
 27 28  1  0
 28 29  2  3
 29 30  1  0
 29 32  1  0
 30 31  2  3
 32 33  1  0
 33 34  1  0
 33 35  1  0
M  END
> <Name>
Flucythrinate

> <CAS>
070124-77-5

> <VED1>
5.646

> <nHAcc>
7

> <MAXDP>
6.011

> <CIC0>
4.219

> <Log Koc Exp>
5

> <Log Koc Pred>
4.06

> <Hat>
0.085

> <Hat Cutoff>
0.161

> <ID Model>
624

> <Smiles>
c1ccc(cc1)Oc1cccc(c1)[C@@H](C#N)OC(=O)[C@H](C(C)C)c1ccc(cc1)OC(F)F

$$$$
Sethoxydim
  SciTegic03251110552D

 24 24  0  0  0  0            999 V2000
    0.0000    0.0000    0.0000 C   0  0
    0.0000    0.0000    0.0000 C   0  0
    0.0000    0.0000    0.0000 O   0  0
    0.0000    0.0000    0.0000 N   0  0
    0.0000    0.0000    0.0000 C   0  0
    0.0000    0.0000    0.0000 C   0  0
    0.0000    0.0000    0.0000 C   0  0
    0.0000    0.0000    0.0000 C   0  0
    0.0000    0.0000    0.0000 C   0  0
    0.0000    0.0000    0.0000 H   0  0
    0.0000    0.0000    0.0000 C   0  0
    0.0000    0.0000    0.0000 C   0  0
    0.0000    0.0000    0.0000 H   0  0
    0.0000    0.0000    0.0000 S   0  0
    0.0000    0.0000    0.0000 C   0  0
    0.0000    0.0000    0.0000 C   0  0
    0.0000    0.0000    0.0000 C   0  0
    0.0000    0.0000    0.0000 C   0  0
    0.0000    0.0000    0.0000 C   0  0
    0.0000    0.0000    0.0000 O   0  0
    0.0000    0.0000    0.0000 O   0  0
    0.0000    0.0000    0.0000 C   0  0
    0.0000    0.0000    0.0000 C   0  0
    0.0000    0.0000    0.0000 C   0  0
  1  2  1  0
  1  3  1  0
  3  4  1  0
  4  5  2  3
  5  6  1  0
  5 22  1  0
  6 19  1  0
  6  7  2  3
  7  8  1  0
  7 21  1  0
  8  9  1  0
  9 10  1  0
  9 11  1  0
  9 18  1  0
 11 12  1  0
 12 13  1  0
 12 14  1  0
 12 17  1  0
 14 15  1  0
 15 16  1  0
 18 19  1  0
 19 20  2  0
 22 23  1  0
 23 24  1  0
M  END
> <Name>
Sethoxydim

> <CAS>
074051-80-2

> <VED1>
4.593

> <nHAcc>
4

> <MAXDP>
5.473

> <CIC0>
4.218

> <Log Koc Exp>
2

> <Log Koc Pred>
3.03

> <Hat>
0.056

> <Hat Cutoff>
0.161

> <ID Model>
626

> <Smiles>
C(C)ON=C(C1=C(C[C@H](C[C@@H](SCC)C)CC1=O)O)CCC

$$$$
Metasulfron methyl
  SciTegic03251110552D

 26 27  0  0  0  0            999 V2000
    0.0000    0.0000    0.0000 C   0  0
    0.0000    0.0000    0.0000 C   0  0
    0.0000    0.0000    0.0000 C   0  0
    0.0000    0.0000    0.0000 C   0  0
    0.0000    0.0000    0.0000 C   0  0
    0.0000    0.0000    0.0000 C   0  0
    0.0000    0.0000    0.0000 C   0  0
    0.0000    0.0000    0.0000 O   0  0
    0.0000    0.0000    0.0000 O   0  0
    0.0000    0.0000    0.0000 C   0  0
    0.0000    0.0000    0.0000 S   0  0
    0.0000    0.0000    0.0000 O   0  0
    0.0000    0.0000    0.0000 O   0  0
    0.0000    0.0000    0.0000 N   0  0
    0.0000    0.0000    0.0000 C   0  0
    0.0000    0.0000    0.0000 O   0  0
    0.0000    0.0000    0.0000 N   0  0
    0.0000    0.0000    0.0000 C   0  0
    0.0000    0.0000    0.0000 N   0  0
    0.0000    0.0000    0.0000 C   0  0
    0.0000    0.0000    0.0000 N   0  0
    0.0000    0.0000    0.0000 C   0  0
    0.0000    0.0000    0.0000 N   0  0
    0.0000    0.0000    0.0000 O   0  0
    0.0000    0.0000    0.0000 C   0  0
    0.0000    0.0000    0.0000 C   0  0
  1  6  1  0
  1  2  2  3
  2  3  1  0
  3  4  2  3
  3 11  1  0
  4  5  1  0
  4  7  1  0
  5  6  2  3
  7  8  2  0
  7  9  1  0
  9 10  1  0
 11 12  2  0
 11 13  2  0
 11 14  1  0
 14 15  1  0
 15 16  2  0
 15 17  1  0
 17 18  1  0
 18 23  1  0
 18 19  2  3
 19 20  1  0
 20 21  2  3
 20 26  1  0
 21 22  1  0
 22 23  2  3
 22 24  1  0
 24 25  1  0
M  END
> <Name>
Metasulfron methyl

> <CAS>
074223-64-6

> <VED1>
5.028

> <nHAcc>
11

> <MAXDP>
5.406

> <CIC0>
3.391

> <Log Koc Exp>
1.74

> <Log Koc Pred>
1.87

> <Hat>
0.174*

> <Hat Cutoff>
0.161

> <ID Model>
628

> <Smiles>
c1cc(c(cc1)C(=O)OC)S(=O)(=O)NC(=O)Nc1nc(nc(n1)OC)C

$$$$
Quizalofop-ethyl
  SciTegic03251110552D

 27 29  0  0  0  0            999 V2000
    0.0000    0.0000    0.0000 C   0  0
    0.0000    0.0000    0.0000 C   0  0
    0.0000    0.0000    0.0000 C   0  0
    0.0000    0.0000    0.0000 C   0  0
    0.0000    0.0000    0.0000 C   0  0
    0.0000    0.0000    0.0000 C   0  0
    0.0000    0.0000    0.0000 N   0  0
    0.0000    0.0000    0.0000 C   0  0
    0.0000    0.0000    0.0000 C   0  0
    0.0000    0.0000    0.0000 N   0  0
    0.0000    0.0000    0.0000 O   0  0
    0.0000    0.0000    0.0000 C   0  0
    0.0000    0.0000    0.0000 C   0  0
    0.0000    0.0000    0.0000 C   0  0
    0.0000    0.0000    0.0000 C   0  0
    0.0000    0.0000    0.0000 C   0  0
    0.0000    0.0000    0.0000 C   0  0
    0.0000    0.0000    0.0000 O   0  0
    0.0000    0.0000    0.0000 C   0  0
    0.0000    0.0000    0.0000 H   0  0
    0.0000    0.0000    0.0000 C   0  0
    0.0000    0.0000    0.0000 C   0  0
    0.0000    0.0000    0.0000 O   0  0
    0.0000    0.0000    0.0000 O   0  0
    0.0000    0.0000    0.0000 C   0  0
    0.0000    0.0000    0.0000 C   0  0
    0.0000    0.0000    0.0000 Cl  0  0
  1  6  1  0
  1  2  2  3
  2  3  1  0
  2 27  1  0
  3  4  2  3
  4 10  1  0
  4  5  1  0
  5  6  2  3
  5  7  1  0
  7  8  2  3
  8  9  1  0
  8 11  1  0
  9 10  2  3
 11 12  1  0
 12 17  1  0
 12 13  2  3
 13 14  1  0
 14 15  2  3
 15 16  1  0
 15 18  1  0
 16 17  2  3
 18 19  1  0
 19 20  1  0
 19 21  1  0
 19 22  1  0
 22 23  2  0
 22 24  1  0
 24 25  1  0
 25 26  1  0
M  END
> <Name>
Quizalofop-ethyl

> <CAS>
076578-14-8

> <VED1>
5.017

> <nHAcc>
6

> <MAXDP>
4.588

> <CIC0>
3.726

> <Log Koc Exp>
2.74

> <Log Koc Pred>
3.68

> <Hat>
0.049

> <Hat Cutoff>
0.161

> <ID Model>
629

> <Smiles>
c1c(cc2c(c1)nc(cn2)Oc1ccc(cc1)O[C@H](C)C(=O)OCC)Cl

$$$$
Flutriafol
  SciTegic03251110552D

 22 24  0  0  0  0            999 V2000
    0.0000    0.0000    0.0000 C   0  0
    0.0000    0.0000    0.0000 C   0  0
    0.0000    0.0000    0.0000 C   0  0
    0.0000    0.0000    0.0000 C   0  0
    0.0000    0.0000    0.0000 C   0  0
    0.0000    0.0000    0.0000 C   0  0
    0.0000    0.0000    0.0000 C   0  0
    0.0000    0.0000    0.0000 C   0  0
    0.0000    0.0000    0.0000 N   0  0
    0.0000    0.0000    0.0000 N   0  0
    0.0000    0.0000    0.0000 C   0  0
    0.0000    0.0000    0.0000 N   0  0
    0.0000    0.0000    0.0000 C   0  0
    0.0000    0.0000    0.0000 C   0  0
    0.0000    0.0000    0.0000 C   0  0
    0.0000    0.0000    0.0000 C   0  0
    0.0000    0.0000    0.0000 C   0  0
    0.0000    0.0000    0.0000 C   0  0
    0.0000    0.0000    0.0000 C   0  0
    0.0000    0.0000    0.0000 F   0  0
    0.0000    0.0000    0.0000 O   0  0
    0.0000    0.0000    0.0000 F   0  0
  1  6  1  0
  1  2  2  3
  1 22  1  0
  2  3  1  0
  3  4  2  3
  4  5  1  0
  4  7  1  0
  5  6  2  3
  7  8  1  0
  7 14  1  0
  7 21  1  0
  8  9  1  0
  9 13  1  0
  9 10  1  0
 10 11  2  3
 11 12  1  0
 12 13  2  3
 14 19  1  0
 14 15  2  3
 15 16  1  0
 16 17  2  3
 17 18  1  0
 18 19  2  3
 19 20  1  0
M  END
> <Name>
Flutriafol

> <CAS>
076674-21-0

> <VED1>
4.614

> <nHAcc>
5

> <MAXDP>
6.199

> <CIC0>
3.396

> <Log Koc Exp>
1.88

> <Log Koc Pred>
2.45

> <Hat>
0.051

> <Hat Cutoff>
0.161

> <ID Model>
630

> <Smiles>
c1(ccc(cc1)[C@@](Cn1ncnc1)(c1ccccc1F)O)F

$$$$
3-(3,5-Dimethyl-4-bromophenyl)-1,1-dimethylurea
  SciTegic03251110552D

 15 15  0  0  0  0            999 V2000
    0.0000    0.0000    0.0000 C   0  0
    0.0000    0.0000    0.0000 C   0  0
    0.0000    0.0000    0.0000 C   0  0
    0.0000    0.0000    0.0000 C   0  0
    0.0000    0.0000    0.0000 C   0  0
    0.0000    0.0000    0.0000 C   0  0
    0.0000    0.0000    0.0000 C   0  0
    0.0000    0.0000    0.0000 Br  0  0
    0.0000    0.0000    0.0000 C   0  0
    0.0000    0.0000    0.0000 N   0  0
    0.0000    0.0000    0.0000 C   0  0
    0.0000    0.0000    0.0000 O   0  0
    0.0000    0.0000    0.0000 N   0  0
    0.0000    0.0000    0.0000 C   0  0
    0.0000    0.0000    0.0000 C   0  0
  1  6  1  0
  1  2  2  3
  1 10  1  0
  2  3  1  0
  3  4  2  3
  3  9  1  0
  4  5  1  0
  4  8  1  0
  5  6  2  3
  5  7  1  0
 10 11  1  0
 11 12  2  0
 11 13  1  0
 13 14  1  0
 13 15  1  0
M  END
> <Name>
3-(3,5-Dimethyl-4-bromophenyl)-1,1-dimethylurea

> <CAS>
078508-43-7

> <VED1>
3.818

> <nHAcc>
3

> <MAXDP>
4.423

> <CIC0>
3.289

> <Log Koc Exp>
2.53

> <Log Koc Pred>
2.37

> <Hat>
0.024

> <Hat Cutoff>
0.161

> <ID Model>
631

> <Smiles>
c1(cc(c(c(c1)C)Br)C)NC(=O)N(C)C

$$$$
4-Phenoxylphenylurea
  SciTegic03251110552D

 17 18  0  0  0  0            999 V2000
    0.0000    0.0000    0.0000 C   0  0
    0.0000    0.0000    0.0000 C   0  0
    0.0000    0.0000    0.0000 C   0  0
    0.0000    0.0000    0.0000 C   0  0
    0.0000    0.0000    0.0000 C   0  0
    0.0000    0.0000    0.0000 C   0  0
    0.0000    0.0000    0.0000 O   0  0
    0.0000    0.0000    0.0000 C   0  0
    0.0000    0.0000    0.0000 C   0  0
    0.0000    0.0000    0.0000 C   0  0
    0.0000    0.0000    0.0000 C   0  0
    0.0000    0.0000    0.0000 C   0  0
    0.0000    0.0000    0.0000 C   0  0
    0.0000    0.0000    0.0000 N   0  0
    0.0000    0.0000    0.0000 C   0  0
    0.0000    0.0000    0.0000 O   0  0
    0.0000    0.0000    0.0000 N   0  0
  1  6  1  0
  1  2  2  3
  2  3  1  0
  3  4  2  3
  3  7  1  0
  4  5  1  0
  5  6  2  3
  7  8  1  0
  8 13  1  0
  8  9  2  3
  9 10  1  0
 10 11  2  3
 11 12  1  0
 11 14  1  0
 12 13  2  3
 14 15  1  0
 15 16  2  0
 15 17  1  0
M  END
> <Name>
4-Phenoxylphenylurea

> <CAS>
078508-44-8

> <VED1>
4.057

> <nHAcc>
4

> <MAXDP>
3.625

> <CIC0>
3.28

> <Log Koc Exp>
2.56

> <Log Koc Pred>
2.78

> <Hat>
0.015

> <Hat Cutoff>
0.161

> <ID Model>
632

> <Smiles>
c1cc(ccc1)Oc1ccc(cc1)NC(=O)N

$$$$
3-Methyl-4-fluorophenylurea
  SciTegic03251110552D

 12 12  0  0  0  0            999 V2000
    0.0000    0.0000    0.0000 C   0  0
    0.0000    0.0000    0.0000 C   0  0
    0.0000    0.0000    0.0000 C   0  0
    0.0000    0.0000    0.0000 C   0  0
    0.0000    0.0000    0.0000 C   0  0
    0.0000    0.0000    0.0000 C   0  0
    0.0000    0.0000    0.0000 C   0  0
    0.0000    0.0000    0.0000 F   0  0
    0.0000    0.0000    0.0000 N   0  0
    0.0000    0.0000    0.0000 C   0  0
    0.0000    0.0000    0.0000 O   0  0
    0.0000    0.0000    0.0000 N   0  0
  1  6  1  0
  1  2  2  3
  1  9  1  0
  2  3  1  0
  3  4  2  3
  4  5  1  0
  4  8  1  0
  5  6  2  3
  5  7  1  0
  9 10  1  0
 10 11  2  0
 10 12  1  0
M  END
> <Name>
3-Methyl-4-fluorophenylurea

> <CAS>
078508-45-9

> <VED1>
3.412

> <nHAcc>
4

> <MAXDP>
4.692

> <CIC0>
2.597

> <Log Koc Exp>
1.75

> <Log Koc Pred>
1.33

> <Hat>
0.033

> <Hat Cutoff>
0.161

> <ID Model>
633

> <Smiles>
c1(ccc(c(c1)C)F)NC(=O)N

$$$$
3-Methyl-4-bromophenylurea
  SciTegic03251110552D

 12 12  0  0  0  0            999 V2000
    0.0000    0.0000    0.0000 C   0  0
    0.0000    0.0000    0.0000 C   0  0
    0.0000    0.0000    0.0000 C   0  0
    0.0000    0.0000    0.0000 C   0  0
    0.0000    0.0000    0.0000 C   0  0
    0.0000    0.0000    0.0000 C   0  0
    0.0000    0.0000    0.0000 N   0  0
    0.0000    0.0000    0.0000 C   0  0
    0.0000    0.0000    0.0000 O   0  0
    0.0000    0.0000    0.0000 N   0  0
    0.0000    0.0000    0.0000 C   0  0
    0.0000    0.0000    0.0000 Br  0  0
  1  6  1  0
  1  2  2  3
  1 12  1  0
  2  3  1  0
  2 11  1  0
  3  4  2  3
  4  5  1  0
  4  7  1  0
  5  6  2  3
  7  8  1  0
  8  9  2  0
  8 10  1  0
M  END
> <Name>
3-Methyl-4-bromophenylurea

> <CAS>
078508-46-0

> <VED1>
3.412

> <nHAcc>
3

> <MAXDP>
3.464

> <CIC0>
2.597

> <Log Koc Exp>
2.37

> <Log Koc Pred>
2.04

> <Hat>
0.015

> <Hat Cutoff>
0.161

> <ID Model>
634

> <Smiles>
c1(c(cc(cc1)NC(=O)N)C)Br

$$$$
Hexythiazox
  SciTegic03251110552D

 25 27  0  0  0  0            999 V2000
    0.0000    0.0000    0.0000 C   0  0
    0.0000    0.0000    0.0000 C   0  0
    0.0000    0.0000    0.0000 C   0  0
    0.0000    0.0000    0.0000 C   0  0
    0.0000    0.0000    0.0000 C   0  0
    0.0000    0.0000    0.0000 C   0  0
    0.0000    0.0000    0.0000 C   0  0
    0.0000    0.0000    0.0000 H   0  0
    0.0000    0.0000    0.0000 C   0  0
    0.0000    0.0000    0.0000 H   0  0
    0.0000    0.0000    0.0000 C   0  0
    0.0000    0.0000    0.0000 N   0  0
    0.0000    0.0000    0.0000 C   0  0
    0.0000    0.0000    0.0000 O   0  0
    0.0000    0.0000    0.0000 S   0  0
    0.0000    0.0000    0.0000 C   0  0
    0.0000    0.0000    0.0000 O   0  0
    0.0000    0.0000    0.0000 N   0  0
    0.0000    0.0000    0.0000 C   0  0
    0.0000    0.0000    0.0000 C   0  0
    0.0000    0.0000    0.0000 C   0  0
    0.0000    0.0000    0.0000 C   0  0
    0.0000    0.0000    0.0000 C   0  0
    0.0000    0.0000    0.0000 C   0  0
    0.0000    0.0000    0.0000 Cl  0  0
  1  6  1  0
  1  2  2  3
  1 25  1  0
  2  3  1  0
  3  4  2  3
  4  5  1  0
  4  7  1  0
  5  6  2  3
  7  8  1  0
  7 15  1  0
  7  9  1  0
  9 10  1  0
  9 11  1  0
  9 12  1  0
 12 13  1  0
 12 16  1  0
 13 14  2  0
 13 15  1  0
 16 17  2  0
 16 18  1  0
 18 19  1  0
 19 24  1  0
 19 20  1  0
 20 21  1  0
 21 22  1  0
 22 23  1  0
 23 24  1  0
M  END
> <Name>
Hexythiazox

> <CAS>
078587-05-0

> <VED1>
4.718

> <nHAcc>
4

> <MAXDP>
5.525

> <CIC0>
3.766

> <Log Koc Exp>
3.79

> <Log Koc Pred>
3.43

> <Hat>
0.051

> <Hat Cutoff>
0.161

> <ID Model>
635

> <Smiles>
c1(ccc(cc1)[C@@H]1[C@@H](C)N(C(=O)S1)C(=O)NC1CCCCC1)Cl

$$$$
Fenoxycarb
  SciTegic03251110552D

 22 23  0  0  0  0            999 V2000
    0.0000    0.0000    0.0000 C   0  0
    0.0000    0.0000    0.0000 O   0  0
    0.0000    0.0000    0.0000 O   0  0
    0.0000    0.0000    0.0000 C   0  0
    0.0000    0.0000    0.0000 C   0  0
    0.0000    0.0000    0.0000 N   0  0
    0.0000    0.0000    0.0000 C   0  0
    0.0000    0.0000    0.0000 C   0  0
    0.0000    0.0000    0.0000 O   0  0
    0.0000    0.0000    0.0000 C   0  0
    0.0000    0.0000    0.0000 C   0  0
    0.0000    0.0000    0.0000 C   0  0
    0.0000    0.0000    0.0000 C   0  0
    0.0000    0.0000    0.0000 O   0  0
    0.0000    0.0000    0.0000 C   0  0
    0.0000    0.0000    0.0000 C   0  0
    0.0000    0.0000    0.0000 C   0  0
    0.0000    0.0000    0.0000 C   0  0
    0.0000    0.0000    0.0000 C   0  0
    0.0000    0.0000    0.0000 C   0  0
    0.0000    0.0000    0.0000 C   0  0
    0.0000    0.0000    0.0000 C   0  0
  1  2  2  0
  1  3  1  0
  1  6  1  0
  3  4  1  0
  4  5  1  0
  6  7  1  0
  7  8  1  0
  8  9  1  0
  9 10  1  0
 10 22  1  0
 10 11  2  3
 11 12  1  0
 12 13  2  3
 13 14  1  0
 13 21  1  0
 14 15  1  0
 15 20  1  0
 15 16  2  3
 16 17  1  0
 17 18  2  3
 18 19  1  0
 19 20  2  3
 21 22  2  3
M  END
> <Name>
Fenoxycarb

> <CAS>
079127-80-3

> <VED1>
4.612

> <nHAcc>
5

> <MAXDP>
4.067

> <CIC0>
3.858

> <Log Koc Exp>
3

> <Log Koc Pred>
3.28

> <Hat>
0.032

> <Hat Cutoff>
0.161

> <ID Model>
636

> <Smiles>
C(=O)(OCC)NCCOc1ccc(Oc2ccccc2)cc1

$$$$
Imazapyr acid
  SciTegic03251110552D

 19 20  0  0  0  0            999 V2000
    0.0000    0.0000    0.0000 C   0  0
    0.0000    0.0000    0.0000 C   0  0
    0.0000    0.0000    0.0000 C   0  0
    0.0000    0.0000    0.0000 C   0  0
    0.0000    0.0000    0.0000 C   0  0
    0.0000    0.0000    0.0000 N   0  0
    0.0000    0.0000    0.0000 C   0  0
    0.0000    0.0000    0.0000 C   0  0
    0.0000    0.0000    0.0000 O   0  0
    0.0000    0.0000    0.0000 N   0  0
    0.0000    0.0000    0.0000 C   0  0
    0.0000    0.0000    0.0000 C   0  0
    0.0000    0.0000    0.0000 C   0  0
    0.0000    0.0000    0.0000 C   0  0
    0.0000    0.0000    0.0000 N   0  0
    0.0000    0.0000    0.0000 C   0  0
    0.0000    0.0000    0.0000 C   0  0
    0.0000    0.0000    0.0000 O   0  0
    0.0000    0.0000    0.0000 O   0  0
  1 16  1  0
  1  2  2  3
  2  3  1  0
  3  4  2  3
  3 17  1  0
  4  5  1  0
  4 15  1  0
  5 10  1  0
  5  6  2  3
  6  7  1  0
  7  8  1  0
  7 11  1  0
  7 12  1  0
  8  9  2  0
  8 10  1  0
 12 13  1  0
 12 14  1  0
 15 16  2  3
 17 18  2  0
 17 19  1  0
M  END
> <Name>
Imazapyr acid

> <CAS>
081334-34-1

> <VED1>
4.297

> <nHAcc>
6

> <MAXDP>
5.001

> <CIC0>
3.418

> <Log Koc Exp>
2

> <Log Koc Pred>
2.14

> <Hat>
0.033

> <Hat Cutoff>
0.161

> <ID Model>
638

> <Smiles>
c1cc(c(C2=N[C@@](C(=O)N2)(C)C(C)C)nc1)C(=O)O

$$$$
Isoxaben
  SciTegic03251110552D

 24 25  0  0  0  0            999 V2000
    0.0000    0.0000    0.0000 C   0  0
    0.0000    0.0000    0.0000 C   0  0
    0.0000    0.0000    0.0000 C   0  0
    0.0000    0.0000    0.0000 C   0  0
    0.0000    0.0000    0.0000 C   0  0
    0.0000    0.0000    0.0000 C   0  0
    0.0000    0.0000    0.0000 O   0  0
    0.0000    0.0000    0.0000 C   0  0
    0.0000    0.0000    0.0000 C   0  0
    0.0000    0.0000    0.0000 O   0  0
    0.0000    0.0000    0.0000 N   0  0
    0.0000    0.0000    0.0000 C   0  0
    0.0000    0.0000    0.0000 C   0  0
    0.0000    0.0000    0.0000 C   0  0
    0.0000    0.0000    0.0000 C   0  0
    0.0000    0.0000    0.0000 C   0  0
    0.0000    0.0000    0.0000 C   0  0
    0.0000    0.0000    0.0000 C   0  0
    0.0000    0.0000    0.0000 C   0  0
    0.0000    0.0000    0.0000 C   0  0
    0.0000    0.0000    0.0000 N   0  0
    0.0000    0.0000    0.0000 O   0  0
    0.0000    0.0000    0.0000 O   0  0
    0.0000    0.0000    0.0000 C   0  0
  1  6  1  0
  1  2  2  3
  2  3  1  0
  3  4  2  3
  3 23  1  0
  4  5  1  0
  4  9  1  0
  5  6  2  3
  5  7  1  0
  7  8  1  0
  9 10  2  0
  9 11  1  0
 11 12  1  0
 12 22  1  0
 12 13  2  3
 13 14  1  0
 14 15  1  0
 14 21  2  3
 15 16  1  0
 15 17  1  0
 15 19  1  0
 17 18  1  0
 19 20  1  0
 21 22  1  0
 23 24  1  0
M  END
> <Name>
Isoxaben

> <CAS>
082558-50-7

> <VED1>
4.831

> <nHAcc>
6

> <MAXDP>
5.613

> <CIC0>
4.065

> <Log Koc Exp>
2.4

> <Log Koc Pred>
3.2

> <Hat>
0.047

> <Hat Cutoff>
0.161

> <ID Model>
639

> <Smiles>
c1cc(c(c(c1)OC)C(=O)Nc1cc(C(C)(CC)CC)no1)OC

$$$$
Cinmethylin
  SciTegic03251110552D

 21 23  0  0  0  0            999 V2000
    0.0000    0.0000    0.0000 C   0  0
    0.0000    0.0000    0.0000 C   0  0
    0.0000    0.0000    0.0000 C   0  0
    0.0000    0.0000    0.0000 C   0  0
    0.0000    0.0000    0.0000 C   0  0
    0.0000    0.0000    0.0000 H   0  0
    0.0000    0.0000    0.0000 C   0  0
    0.0000    0.0000    0.0000 C   0  0
    0.0000    0.0000    0.0000 O   0  0
    0.0000    0.0000    0.0000 O   0  0
    0.0000    0.0000    0.0000 C   0  0
    0.0000    0.0000    0.0000 C   0  0
    0.0000    0.0000    0.0000 C   0  0
    0.0000    0.0000    0.0000 C   0  0
    0.0000    0.0000    0.0000 C   0  0
    0.0000    0.0000    0.0000 C   0  0
    0.0000    0.0000    0.0000 C   0  0
    0.0000    0.0000    0.0000 C   0  0
    0.0000    0.0000    0.0000 C   0  0
    0.0000    0.0000    0.0000 C   0  0
    0.0000    0.0000    0.0000 C   0  0
  1  7  1  0
  1  2  1  0
  2  3  1  0
  3  9  1  0
  3  4  1  0
  3 19  1  0
  4  5  1  0
  5  6  1  0
  5  7  1  0
  5 10  1  0
  7  8  1  0
  7  9  1  0
 10 11  1  0
 11 12  1  0
 12 17  1  0
 12 13  2  3
 13 14  1  0
 13 18  1  0
 14 15  2  3
 15 16  1  0
 16 17  2  3
 19 20  1  0
 19 21  1  0
M  END
> <Name>
Cinmethylin

> <CAS>
087818-31-3

> <VED1>
4.413

> <nHAcc>
2

> <MAXDP>
2.915

> <CIC0>
4.332

> <Log Koc Exp>
2.6

> <Log Koc Pred>
4.08

> <Hat>
0.054

> <Hat Cutoff>
0.161

> <ID Model>
641

> <Smiles>
C1C[C@]2(C[C@@H]([C@]1(C)O2)OCc1c(cccc1)C)C(C)C

$$$$
Cyhalothrin
  SciTegic03251110552D

 34 36  0  0  0  0            999 V2000
    0.0000    0.0000    0.0000 C   0  0
    0.0000    0.0000    0.0000 F   0  0
    0.0000    0.0000    0.0000 F   0  0
    0.0000    0.0000    0.0000 F   0  0
    0.0000    0.0000    0.0000 C   0  0
    0.0000    0.0000    0.0000 C   0  0
    0.0000    0.0000    0.0000 C   0  0
    0.0000    0.0000    0.0000 H   0  0
    0.0000    0.0000    0.0000 C   0  0
    0.0000    0.0000    0.0000 H   0  0
    0.0000    0.0000    0.0000 C   0  0
    0.0000    0.0000    0.0000 O   0  0
    0.0000    0.0000    0.0000 O   0  0
    0.0000    0.0000    0.0000 C   0  0
    0.0000    0.0000    0.0000 H   0  0
    0.0000    0.0000    0.0000 C   0  0
    0.0000    0.0000    0.0000 C   0  0
    0.0000    0.0000    0.0000 C   0  0
    0.0000    0.0000    0.0000 O   0  0
    0.0000    0.0000    0.0000 C   0  0
    0.0000    0.0000    0.0000 C   0  0
    0.0000    0.0000    0.0000 C   0  0
    0.0000    0.0000    0.0000 C   0  0
    0.0000    0.0000    0.0000 C   0  0
    0.0000    0.0000    0.0000 C   0  0
    0.0000    0.0000    0.0000 C   0  0
    0.0000    0.0000    0.0000 C   0  0
    0.0000    0.0000    0.0000 C   0  0
    0.0000    0.0000    0.0000 C   0  0
    0.0000    0.0000    0.0000 N   0  0
    0.0000    0.0000    0.0000 C   0  0
    0.0000    0.0000    0.0000 C   0  0
    0.0000    0.0000    0.0000 C   0  0
    0.0000    0.0000    0.0000 Cl  0  0
  1  2  1  0
  1  3  1  0
  1  4  1  0
  1  5  1  0
  5  6  2  3
  5 34  1  0
  6  7  1  0
  7  8  1  0
  7 31  1  0
  7  9  1  0
  9 10  1  0
  9 11  1  0
  9 31  1  0
 11 12  2  0
 11 13  1  0
 13 14  1  0
 14 15  1  0
 14 16  1  0
 14 29  1  0
 16 28  1  0
 16 17  2  3
 17 18  1  0
 18 19  1  0
 18 26  2  3
 19 20  1  0
 20 25  1  0
 20 21  2  3
 21 22  1  0
 22 23  2  3
 23 24  1  0
 24 25  2  3
 26 27  1  0
 27 28  2  3
 29 30  3  0
 31 32  1  0
 31 33  1  0
M  END
> <Name>
Cyhalothrin

> <CAS>
091465-08-6

> <VED1>
5.484

> <nHAcc>
7

> <MAXDP>
5.623

> <CIC0>
3.885

> <Log Koc Exp>
5.26

> <Log Koc Pred>
3.95

> <Hat>
0.079

> <Hat Cutoff>
0.161

> <ID Model>
643

> <Smiles>
C(F)(F)(F)C(=C[C@@H]1[C@H](C(=O)O[C@H](c2cc(Oc3ccccc3)ccc2)C#N)C1(C)C)Cl

$$$$
