TRIMETHYLPHOSPHATE
  DSViewer          3D                             0

  8  7  0  0  0  0  0  0  0  0999 V2000
    2.8597    0.4433    0.4844 C   0  0  0  0  0  0  0  0  0  1
    1.9974   -0.3645   -0.3207 O   0  0  0  0  0  0  0  0  0  2
    0.5358    0.1311   -0.1756 P   0  0  0  0  0  0  0  0  0  3
    0.4747    1.4465   -0.5898 O   0  0  0  0  0  0  0  0  0  4
    0.1692    0.0244    1.3648 O   0  0  0  0  0  0  0  0  0  5
   -1.0303    0.7277    1.7430 C   0  0  0  0  0  0  0  0  0  6
   -0.3465   -0.7826   -1.1251 O   0  0  0  0  0  0  0  0  0  7
   -1.6681   -0.2722   -1.3806 C   0  0  0  0  0  0  0  0  0  8
  1  2  1  0  0  0
  2  3  1  0  0  0
  3  4  2  0  0  0
  3  5  1  0  0  0
  5  6  1  0  0  0
  3  7  1  0  0  0
  7  8  1  0  0  0
M  END
> <SMILES>
COP(=O)(OC)OC

> <Reference>
NTP/TR-81

> <Id2>
.

> <Actual Value>
NEG

> <Predicted Value>
0.000 NEG

> <Used>
1

> <Additional Info(LOAEL)>
.

> <Status>
Non-Carcinogen

> <iscarc>
0

$$$$
PROPYLENE
  SciTegic06161615512D

  3  2  0  0  0  0            999 V2000
    0.0000    0.0000    0.0000 C   0  0
    0.0000    0.0000    0.0000 C   0  0
    0.0000    0.0000    0.0000 C   0  0
  1  2  1  0
  2  3  2  0
M  END
> <Name>
PROPYLENE

> <SMILES>
CC=C

> <Reference>
NTP/TR-272

> <Id>
115-07-1

> <Actual Value>
NEG

> <Predicted Value>
0.035 NEG

> <Used>
1

> <Status>
Non-Carcinogen

> <iscarc>
0

$$$$
MALONALDEHYDE
  SciTegic06161615512D

  5  4  0  0  0  0            999 V2000
    0.0000    0.0000    0.0000 O   0  0
    0.0000    0.0000    0.0000 C   0  0
    0.0000    0.0000    0.0000 C   0  0
    0.0000    0.0000    0.0000 C   0  0
    0.0000    0.0000    0.0000 O   0  0
  1  2  2  0
  2  3  1  0
  3  4  1  0
  4  5  2  0
M  END
> <Name>
MALONALDEHYDE

> <SMILES>
O=CCC=O

> <Reference>
NTP/TR-331

> <Id>
24382-04-5

> <Actual Value>
NEG

> <Predicted Value>
0.000 NEG

> <Used>
1

> <Status>
Non-Carcinogen

> <iscarc>
0

$$$$
ALLYLISOVALERATE
  SciTegic06161615512D

 10  9  0  0  0  0            999 V2000
    0.0000    0.0000    0.0000 C   0  0
    0.0000    0.0000    0.0000 C   0  0
    0.0000    0.0000    0.0000 C   0  0
    0.0000    0.0000    0.0000 C   0  0
    0.0000    0.0000    0.0000 C   0  0
    0.0000    0.0000    0.0000 O   0  0
    0.0000    0.0000    0.0000 O   0  0
    0.0000    0.0000    0.0000 C   0  0
    0.0000    0.0000    0.0000 C   0  0
    0.0000    0.0000    0.0000 C   0  0
  1  2  1  0
  2  3  1  0
  2  4  1  0
  4  5  1  0
  5  6  2  0
  5  7  1  0
  7  8  1  0
  8  9  1  0
  9 10  2  0
M  END
> <Name>
ALLYLISOVALERATE

> <SMILES>
CC(C)CC(=O)OCC=C

> <Reference>
NTP/TR-253

> <Id>
2835-39-4

> <Actual Value>
NEG

> <Predicted Value>
0.000 NEG

> <Used>
1

> <Status>
Non-Carcinogen

> <iscarc>
0

$$$$
1;3-BUTADIENE
  SciTegic06161615512D

  4  3  0  0  0  0            999 V2000
    0.0000    0.0000    0.0000 C   0  0
    0.0000    0.0000    0.0000 C   0  0
    0.0000    0.0000    0.0000 C   0  0
    0.0000    0.0000    0.0000 C   0  0
  1  2  2  0
  2  3  1  0
  3  4  2  0
M  END
> <Name>
1;3-BUTADIENE

> <SMILES>
C=CC=C

> <Reference>
NTP/TR-434

> <Id>
106-99-0

> <Actual Value>
POS

> <Predicted Value>
0.994 POS

> <Used>
1

> <Status>
Carcinogen

> <iscarc>
1

$$$$
N;N'-DIETHYLTHIOUREA
  SciTegic06161615512D

  8  7  0  0  0  0            999 V2000
    0.0000    0.0000    0.0000 C   0  0
    0.0000    0.0000    0.0000 C   0  0
    0.0000    0.0000    0.0000 N   0  0
    0.0000    0.0000    0.0000 C   0  0
    0.0000    0.0000    0.0000 S   0  0
    0.0000    0.0000    0.0000 N   0  0
    0.0000    0.0000    0.0000 C   0  0
    0.0000    0.0000    0.0000 C   0  0
  1  2  1  0
  2  3  1  0
  3  4  1  0
  4  5  2  0
  4  6  1  0
  6  7  1  0
  7  8  1  0
M  END
> <Name>
N;N'-DIETHYLTHIOUREA

> <SMILES>
CCNC(=S)NCC

> <Reference>
NTP/TR-149

> <Id>
105-55-5

> <Actual Value>
NEG

> <Predicted Value>
0.000 NEG

> <Used>
1

> <Status>
Non-Carcinogen

> <CanonicalTautomer>
Yes

> <NumberOfTautomers>
3

> <iscarc>
0

$$$$
THIO-T.E.P.A.
  SciTegic06161615512D

 11 13  0  0  0  0            999 V2000
    0.0000    0.0000    0.0000 S   0  0
    0.0000    0.0000    0.0000 P   0  0
    0.0000    0.0000    0.0000 N   0  0
    0.0000    0.0000    0.0000 C   0  0
    0.0000    0.0000    0.0000 C   0  0
    0.0000    0.0000    0.0000 N   0  0
    0.0000    0.0000    0.0000 C   0  0
    0.0000    0.0000    0.0000 C   0  0
    0.0000    0.0000    0.0000 N   0  0
    0.0000    0.0000    0.0000 C   0  0
    0.0000    0.0000    0.0000 C   0  0
  1  2  2  0
  2  3  1  0
  3  4  1  0
  4  5  1  0
  5  3  1  0
  2  6  1  0
  6  7  1  0
  7  8  1  0
  8  6  1  0
  2  9  1  0
  9 10  1  0
 10 11  1  0
 11  9  1  0
M  END
> <Name>
THIO-T.E.P.A.

> <SMILES>
S=P(N1CC1)(N2CC2)N3CC3

> <Reference>
NTP/TR-58

> <Id>
52-24-4

> <Actual Value>
POS

> <Predicted Value>
0.993 POS

> <Used>
1

> <Status>
Carcinogen

> <iscarc>
1

$$$$
HYDROQUINONE
  SciTegic06161615512D

  8  8  0  0  0  0            999 V2000
    0.0000    0.0000    0.0000 O   0  0
    0.0000    0.0000    0.0000 C   0  0
    0.0000    0.0000    0.0000 C   0  0
    0.0000    0.0000    0.0000 C   0  0
    0.0000    0.0000    0.0000 C   0  0
    0.0000    0.0000    0.0000 O   0  0
    0.0000    0.0000    0.0000 C   0  0
    0.0000    0.0000    0.0000 C   0  0
  1  2  1  0
  2  3  2  3
  3  4  1  0
  4  5  2  3
  5  6  1  0
  5  7  1  0
  7  8  2  3
  8  2  1  0
M  END
> <Name>
HYDROQUINONE

> <SMILES>
Oc1ccc(O)cc1

> <Reference>
NTP/TR-366

> <Id>
123-31-9

> <Actual Value>
NEG

> <Predicted Value>
0.000 NEG

> <Used>
1

> <Status>
Non-Carcinogen

> <iscarc>
0

$$$$
DIMETHYL MORPHOLINOPHOSPHORAMIDATE
  SciTegic06161615512D

 12 12  0  0  0  0            999 V2000
    0.0000    0.0000    0.0000 C   0  0
    0.0000    0.0000    0.0000 O   0  0
    0.0000    0.0000    0.0000 P   0  0
    0.0000    0.0000    0.0000 O   0  0
    0.0000    0.0000    0.0000 O   0  0
    0.0000    0.0000    0.0000 C   0  0
    0.0000    0.0000    0.0000 N   0  0
    0.0000    0.0000    0.0000 C   0  0
    0.0000    0.0000    0.0000 C   0  0
    0.0000    0.0000    0.0000 O   0  0
    0.0000    0.0000    0.0000 C   0  0
    0.0000    0.0000    0.0000 C   0  0
  1  2  1  0
  2  3  1  0
  3  4  2  0
  3  5  1  0
  5  6  1  0
  3  7  1  0
  7  8  1  0
  8  9  1  0
  9 10  1  0
 10 11  1  0
 11 12  1  0
 12  7  1  0
M  END
> <Name>
DIMETHYL MORPHOLINOPHOSPHORAMIDATE

> <SMILES>
COP(=O)(OC)N1CCOCC1

> <Reference>
NTP/TR-298

> <Id>
597-25-1

> <Actual Value>
NEG

> <Predicted Value>
0.000 NEG

> <Used>
1

> <Status>
Non-Carcinogen

> <iscarc>
0

$$$$
1;4-DIOXANE
  SciTegic06161615512D

  6  6  0  0  0  0            999 V2000
    0.0000    0.0000    0.0000 C   0  0
    0.0000    0.0000    0.0000 C   0  0
    0.0000    0.0000    0.0000 O   0  0
    0.0000    0.0000    0.0000 C   0  0
    0.0000    0.0000    0.0000 C   0  0
    0.0000    0.0000    0.0000 O   0  0
  1  2  1  0
  2  3  1  0
  3  4  1  0
  4  5  1  0
  5  6  1  0
  6  1  1  0
M  END
> <Name>
1;4-DIOXANE

> <SMILES>
C1COCCO1

> <Reference>
NTP/TR-80

> <Id>
123-91-1

> <Actual Value>
POS

> <Predicted Value>
1.000 POS

> <Used>
1

> <Status>
Carcinogen

> <iscarc>
1

$$$$
ETHYLENE OXIDE
  SciTegic06161615512D

  3  3  0  0  0  0            999 V2000
    0.0000    0.0000    0.0000 C   0  0
    0.0000    0.0000    0.0000 C   0  0
    0.0000    0.0000    0.0000 O   0  0
  1  2  1  0
  2  3  1  0
  3  1  1  0
M  END
> <Name>
ETHYLENE OXIDE

> <SMILES>
C1CO1

> <Reference>
NTP/TR-326

> <Id>
75-21-8

> <Actual Value>
POS

> <Predicted Value>
1.000 POS

> <Used>
1

> <Status>
Carcinogen

> <iscarc>
1

$$$$
DIPHENHYDRAMINE
  SciTegic06161615512D

 19 20  0  0  0  0            999 V2000
    0.0000    0.0000    0.0000 C   0  0
    0.0000    0.0000    0.0000 N   0  0
    0.0000    0.0000    0.0000 C   0  0
    0.0000    0.0000    0.0000 C   0  0
    0.0000    0.0000    0.0000 C   0  0
    0.0000    0.0000    0.0000 O   0  0
    0.0000    0.0000    0.0000 C   0  0
    0.0000    0.0000    0.0000 C   0  0
    0.0000    0.0000    0.0000 C   0  0
    0.0000    0.0000    0.0000 C   0  0
    0.0000    0.0000    0.0000 C   0  0
    0.0000    0.0000    0.0000 C   0  0
    0.0000    0.0000    0.0000 C   0  0
    0.0000    0.0000    0.0000 C   0  0
    0.0000    0.0000    0.0000 C   0  0
    0.0000    0.0000    0.0000 C   0  0
    0.0000    0.0000    0.0000 C   0  0
    0.0000    0.0000    0.0000 C   0  0
    0.0000    0.0000    0.0000 C   0  0
  1  2  1  0
  2  3  1  0
  2  4  1  0
  4  5  1  0
  5  6  1  0
  6  7  1  0
  7  8  1  0
  8  9  2  3
  9 10  1  0
 10 11  2  3
 11 12  1  0
 12 13  2  3
 13  8  1  0
  7 14  1  0
 14 15  2  3
 15 16  1  0
 16 17  2  3
 17 18  1  0
 18 19  2  3
 19 14  1  0
M  END
> <Name>
DIPHENHYDRAMINE

> <SMILES>
CN(C)CCOC(c1ccccc1)c2ccccc2

> <Reference>
NTP/TR-355

> <Id>
147-24-0

> <Actual Value>
NEG

> <Predicted Value>
0.001 NEG

> <Used>
1

> <Status>
Non-Carcinogen

> <iscarc>
0

$$$$
NAPHTHALENE
  SciTegic06161615512D

 10 11  0  0  0  0            999 V2000
    0.0000    0.0000    0.0000 C   0  0
    0.0000    0.0000    0.0000 C   0  0
    0.0000    0.0000    0.0000 C   0  0
    0.0000    0.0000    0.0000 C   0  0
    0.0000    0.0000    0.0000 C   0  0
    0.0000    0.0000    0.0000 C   0  0
    0.0000    0.0000    0.0000 C   0  0
    0.0000    0.0000    0.0000 C   0  0
    0.0000    0.0000    0.0000 C   0  0
    0.0000    0.0000    0.0000 C   0  0
  1  2  2  3
  2  3  1  0
  3  4  2  3
  4  5  1  0
  5  6  2  3
  6  7  1  0
  7  8  2  3
  8  9  1  0
  9  4  1  0
  9 10  2  3
 10  1  1  0
M  END
> <Name>
NAPHTHALENE

> <SMILES>
c2ccc1ccccc1c2

> <Reference>
NTP/TR-410

> <Id>
91-20-3

> <Actual Value>
NEG

> <Predicted Value>
0.000 NEG

> <Used>
1

> <Status>
Non-Carcinogen

> <iscarc>
0

$$$$
SUCCINIC ANHYDRIDE
  SciTegic06161615512D

  7  7  0  0  0  0            999 V2000
    0.0000    0.0000    0.0000 O   0  0
    0.0000    0.0000    0.0000 C   0  0
    0.0000    0.0000    0.0000 C   0  0
    0.0000    0.0000    0.0000 C   0  0
    0.0000    0.0000    0.0000 C   0  0
    0.0000    0.0000    0.0000 O   0  0
    0.0000    0.0000    0.0000 O   0  0
  1  2  2  0
  2  3  1  0
  3  4  1  0
  4  5  1  0
  5  6  2  0
  5  7  1  0
  7  2  1  0
M  END
> <Name>
SUCCINIC ANHYDRIDE

> <SMILES>
O=C1CCC(=O)O1

> <Reference>
NTP/TR-373

> <Id>
108-30-5

> <Actual Value>
NEG

> <Predicted Value>
0.000 NEG

> <Used>
1

> <Status>
Non-Carcinogen

> <iscarc>
0

$$$$
PHENOL
  SciTegic06161615512D

  7  7  0  0  0  0            999 V2000
    0.0000    0.0000    0.0000 O   0  0
    0.0000    0.0000    0.0000 C   0  0
    0.0000    0.0000    0.0000 C   0  0
    0.0000    0.0000    0.0000 C   0  0
    0.0000    0.0000    0.0000 C   0  0
    0.0000    0.0000    0.0000 C   0  0
    0.0000    0.0000    0.0000 C   0  0
  1  2  1  0
  2  3  2  3
  3  4  1  0
  4  5  2  3
  5  6  1  0
  6  7  2  3
  7  2  1  0
M  END
> <Name>
PHENOL

> <SMILES>
Oc1ccccc1

> <Reference>
NTP/TR-203

> <Id>
108-95-2

> <Actual Value>
NEG

> <Predicted Value>
0.000 NEG

> <Used>
1

> <Status>
Non-Carcinogen

> <iscarc>
0

$$$$
TETRAETHYLTHIURAM DISULFIDE
  SciTegic06161615512D

 16 15  0  0  0  0            999 V2000
    0.0000    0.0000    0.0000 C   0  0
    0.0000    0.0000    0.0000 C   0  0
    0.0000    0.0000    0.0000 N   0  0
    0.0000    0.0000    0.0000 C   0  0
    0.0000    0.0000    0.0000 C   0  0
    0.0000    0.0000    0.0000 C   0  0
    0.0000    0.0000    0.0000 S   0  0
    0.0000    0.0000    0.0000 S   0  0
    0.0000    0.0000    0.0000 S   0  0
    0.0000    0.0000    0.0000 C   0  0
    0.0000    0.0000    0.0000 S   0  0
    0.0000    0.0000    0.0000 N   0  0
    0.0000    0.0000    0.0000 C   0  0
    0.0000    0.0000    0.0000 C   0  0
    0.0000    0.0000    0.0000 C   0  0
    0.0000    0.0000    0.0000 C   0  0
  1  2  1  0
  2  3  1  0
  3  4  1  0
  4  5  1  0
  3  6  1  0
  6  7  2  0
  6  8  1  0
  8  9  1  0
  9 10  1  0
 10 11  2  0
 10 12  1  0
 12 13  1  0
 13 14  1  0
 12 15  1  0
 15 16  1  0
M  END
> <Name>
TETRAETHYLTHIURAM DISULFIDE

> <SMILES>
CCN(CC)C(=S)SSC(=S)N(CC)CC

> <Reference>
NTP/TR-166

> <Id>
97-77-8

> <Actual Value>
NEG

> <Predicted Value>
0.000 NEG

> <Used>
1

> <Status>
Non-Carcinogen

> <iscarc>
0

$$$$
ACETONITRILE
  SciTegic06161615512D

  3  2  0  0  0  0            999 V2000
    0.0000    0.0000    0.0000 C   0  0
    0.0000    0.0000    0.0000 C   0  0
    0.0000    0.0000    0.0000 N   0  0
  1  2  1  0
  2  3  3  0
M  END
> <Name>
ACETONITRILE

> <SMILES>
CC#N

> <Reference>
NTP/TR-447

> <Id>
75-05-8

> <Actual Value>
NEG

> <Predicted Value>
0.000 NEG

> <Used>
1

> <Status>
Non-Carcinogen

> <iscarc>
0

$$$$
RESORCINOL
  SciTegic06161615512D

  8  8  0  0  0  0            999 V2000
    0.0000    0.0000    0.0000 O   0  0
    0.0000    0.0000    0.0000 C   0  0
    0.0000    0.0000    0.0000 C   0  0
    0.0000    0.0000    0.0000 C   0  0
    0.0000    0.0000    0.0000 C   0  0
    0.0000    0.0000    0.0000 C   0  0
    0.0000    0.0000    0.0000 O   0  0
    0.0000    0.0000    0.0000 C   0  0
  1  2  1  0
  2  3  2  3
  3  4  1  0
  4  5  2  3
  5  6  1  0
  6  7  1  0
  6  8  2  3
  8  2  1  0
M  END
> <Name>
RESORCINOL

> <SMILES>
Oc1cccc(O)c1

> <Reference>
NTP/TR-403

> <Id>
108-46-3

> <Actual Value>
NEG

> <Predicted Value>
0.000 NEG

> <Used>
1

> <Status>
Non-Carcinogen

> <iscarc>
0

$$$$
BENZYL ACETATE
  SciTegic06161615512D

 11 11  0  0  0  0            999 V2000
    0.0000    0.0000    0.0000 C   0  0
    0.0000    0.0000    0.0000 C   0  0
    0.0000    0.0000    0.0000 O   0  0
    0.0000    0.0000    0.0000 O   0  0
    0.0000    0.0000    0.0000 C   0  0
    0.0000    0.0000    0.0000 C   0  0
    0.0000    0.0000    0.0000 C   0  0
    0.0000    0.0000    0.0000 C   0  0
    0.0000    0.0000    0.0000 C   0  0
    0.0000    0.0000    0.0000 C   0  0
    0.0000    0.0000    0.0000 C   0  0
  1  2  1  0
  2  3  2  0
  2  4  1  0
  4  5  1  0
  5  6  1  0
  6  7  2  3
  7  8  1  0
  8  9  2  3
  9 10  1  0
 10 11  2  3
 11  6  1  0
M  END
> <Name>
BENZYL ACETATE

> <SMILES>
CC(=O)OCc1ccccc1

> <Reference>
NTP/TR-431

> <Id>
140-11-4

> <Actual Value>
NEG

> <Predicted Value>
0.000 NEG

> <Used>
1

> <Status>
Non-Carcinogen

> <iscarc>
0

$$$$
ALLYL ISOTHIOCYANATE
  SciTegic06161615512D

  6  5  0  0  0  0            999 V2000
    0.0000    0.0000    0.0000 C   0  0
    0.0000    0.0000    0.0000 C   0  0
    0.0000    0.0000    0.0000 C   0  0
    0.0000    0.0000    0.0000 N   0  0
    0.0000    0.0000    0.0000 C   0  0
    0.0000    0.0000    0.0000 S   0  0
  1  2  2  0
  2  3  1  0
  3  4  1  0
  4  5  2  3
  5  6  2  0
M  END
> <Name>
ALLYL ISOTHIOCYANATE

> <SMILES>
C=CCN=C=S

> <Reference>
NTP/TR-234

> <Id>
57-06-7

> <Actual Value>
NEG

> <Predicted Value>
0.000 NEG

> <Used>
1

> <Status>
Non-Carcinogen

> <iscarc>
0

$$$$
CHLOROBENZENE
  SciTegic06161615512D

  7  7  0  0  0  0            999 V2000
    0.0000    0.0000    0.0000 Cl  0  0
    0.0000    0.0000    0.0000 C   0  0
    0.0000    0.0000    0.0000 C   0  0
    0.0000    0.0000    0.0000 C   0  0
    0.0000    0.0000    0.0000 C   0  0
    0.0000    0.0000    0.0000 C   0  0
    0.0000    0.0000    0.0000 C   0  0
  1  2  1  0
  2  3  2  3
  3  4  1  0
  4  5  2  3
  5  6  1  0
  6  7  2  3
  7  2  1  0
M  END
> <Name>
CHLOROBENZENE

> <SMILES>
Clc1ccccc1

> <Reference>
NTP/TR-261

> <Id>
108-90-7

> <Actual Value>
NEG

> <Predicted Value>
0.000 NEG

> <Used>
1

> <Status>
Non-Carcinogen

> <iscarc>
0

$$$$
METHYL METHACRYLATE
  SciTegic06161615512D

  7  6  0  0  0  0            999 V2000
    0.0000    0.0000    0.0000 C   0  0
    0.0000    0.0000    0.0000 O   0  0
    0.0000    0.0000    0.0000 C   0  0
    0.0000    0.0000    0.0000 O   0  0
    0.0000    0.0000    0.0000 C   0  0
    0.0000    0.0000    0.0000 C   0  0
    0.0000    0.0000    0.0000 C   0  0
  1  2  1  0
  2  3  1  0
  3  4  2  0
  3  5  1  0
  5  6  1  0
  5  7  2  0
M  END
> <Name>
METHYL METHACRYLATE

> <SMILES>
COC(=O)C(C)=C

> <Reference>
NTP/TR-314

> <Id>
80-62-6

> <Actual Value>
NEG

> <Predicted Value>
0.000 NEG

> <Used>
1

> <Status>
Non-Carcinogen

> <iscarc>
0

$$$$
METHYL CARBAMATE
  SciTegic06161615512D

  5  4  0  0  0  0            999 V2000
    0.0000    0.0000    0.0000 C   0  0
    0.0000    0.0000    0.0000 O   0  0
    0.0000    0.0000    0.0000 C   0  0
    0.0000    0.0000    0.0000 N   0  0
    0.0000    0.0000    0.0000 O   0  0
  1  2  1  0
  2  3  1  0
  3  4  1  0
  3  5  2  0
M  END
> <Name>
METHYL CARBAMATE

> <SMILES>
COC(N)=O

> <Reference>
NTP/TR-328

> <Id>
598-55-0

> <Actual Value>
NEG

> <Predicted Value>
0.000 NEG

> <Used>
1

> <Status>
Non-Carcinogen

> <iscarc>
0

$$$$
MELAMINE
  SciTegic06161615512D

  9  9  0  0  0  0            999 V2000
    0.0000    0.0000    0.0000 N   0  0
    0.0000    0.0000    0.0000 C   0  0
    0.0000    0.0000    0.0000 N   0  0
    0.0000    0.0000    0.0000 C   0  0
    0.0000    0.0000    0.0000 N   0  0
    0.0000    0.0000    0.0000 N   0  0
    0.0000    0.0000    0.0000 C   0  0
    0.0000    0.0000    0.0000 N   0  0
    0.0000    0.0000    0.0000 N   0  0
  1  2  1  0
  2  3  2  3
  3  4  1  0
  4  5  1  0
  4  6  2  3
  6  7  1  0
  7  8  1  0
  7  9  2  3
  9  2  1  0
M  END
> <Name>
MELAMINE

> <SMILES>
Nc1nc(N)nc(N)n1

> <Reference>
NTP/TR-245

> <Id>
108-78-1

> <Actual Value>
NEG

> <Predicted Value>
0.001 NEG

> <Used>
1

> <Status>
Non-Carcinogen

> <CanonicalTautomer>
Yes

> <NumberOfTautomers>
17

> <iscarc>
0

$$$$
TOLUENE
  SciTegic06161615512D

  7  7  0  0  0  0            999 V2000
    0.0000    0.0000    0.0000 C   0  0
    0.0000    0.0000    0.0000 C   0  0
    0.0000    0.0000    0.0000 C   0  0
    0.0000    0.0000    0.0000 C   0  0
    0.0000    0.0000    0.0000 C   0  0
    0.0000    0.0000    0.0000 C   0  0
    0.0000    0.0000    0.0000 C   0  0
  1  2  1  0
  2  3  2  3
  3  4  1  0
  4  5  2  3
  5  6  1  0
  6  7  2  3
  7  2  1  0
M  END
> <Name>
TOLUENE

> <SMILES>
Cc1ccccc1

> <Reference>
NTP/TR-371

> <Id>
108-88-3

> <Actual Value>
NEG

> <Predicted Value>
0.314 IND

> <Used>
1

> <Status>
Non-Carcinogen

> <iscarc>
0

$$$$
HYDRAZOBENZENE
  SciTegic06161615512D

 14 15  0  0  0  0            999 V2000
    0.0000    0.0000    0.0000 N   0  0
    0.0000    0.0000    0.0000 N   0  0
    0.0000    0.0000    0.0000 C   0  0
    0.0000    0.0000    0.0000 C   0  0
    0.0000    0.0000    0.0000 C   0  0
    0.0000    0.0000    0.0000 C   0  0
    0.0000    0.0000    0.0000 C   0  0
    0.0000    0.0000    0.0000 C   0  0
    0.0000    0.0000    0.0000 C   0  0
    0.0000    0.0000    0.0000 C   0  0
    0.0000    0.0000    0.0000 C   0  0
    0.0000    0.0000    0.0000 C   0  0
    0.0000    0.0000    0.0000 C   0  0
    0.0000    0.0000    0.0000 C   0  0
  1  2  1  0
  2  3  1  0
  3  4  2  3
  4  5  1  0
  5  6  2  3
  6  7  1  0
  7  8  2  3
  8  3  1  0
  1  9  1  0
  9 10  2  3
 10 11  1  0
 11 12  2  3
 12 13  1  0
 13 14  2  3
 14  9  1  0
M  END
> <Name>
HYDRAZOBENZENE

> <SMILES>
N(Nc1ccccc1)c2ccccc2

> <Reference>
NTP/TR-92

> <Id>
122-66-7

> <Actual Value>
NEG

> <Predicted Value>
0.000 NEG

> <Used>
1

> <Status>
Non-Carcinogen

> <iscarc>
0

$$$$
N;N-DIMETHYLANILINE
  SciTegic06161615512D

  9  9  0  0  0  0            999 V2000
    0.0000    0.0000    0.0000 C   0  0
    0.0000    0.0000    0.0000 N   0  0
    0.0000    0.0000    0.0000 C   0  0
    0.0000    0.0000    0.0000 C   0  0
    0.0000    0.0000    0.0000 C   0  0
    0.0000    0.0000    0.0000 C   0  0
    0.0000    0.0000    0.0000 C   0  0
    0.0000    0.0000    0.0000 C   0  0
    0.0000    0.0000    0.0000 C   0  0
  1  2  1  0
  2  3  1  0
  2  4  1  0
  4  5  2  3
  5  6  1  0
  6  7  2  3
  7  8  1  0
  8  9  2  3
  9  4  1  0
M  END
> <Name>
N;N-DIMETHYLANILINE

> <SMILES>
CN(C)c1ccccc1

> <Reference>
NTP/TR-360

> <Id>
121-69-7

> <Actual Value>
NEG

> <Predicted Value>
0.000 NEG

> <Used>
1

> <Status>
Non-Carcinogen

> <iscarc>
0

$$$$
AZOBENZENE
  SciTegic06161615512D

 14 15  0  0  0  0            999 V2000
    0.0000    0.0000    0.0000 N   0  0
    0.0000    0.0000    0.0000 N   0  0
    0.0000    0.0000    0.0000 C   0  0
    0.0000    0.0000    0.0000 C   0  0
    0.0000    0.0000    0.0000 C   0  0
    0.0000    0.0000    0.0000 C   0  0
    0.0000    0.0000    0.0000 C   0  0
    0.0000    0.0000    0.0000 C   0  0
    0.0000    0.0000    0.0000 C   0  0
    0.0000    0.0000    0.0000 C   0  0
    0.0000    0.0000    0.0000 C   0  0
    0.0000    0.0000    0.0000 C   0  0
    0.0000    0.0000    0.0000 C   0  0
    0.0000    0.0000    0.0000 C   0  0
  1  2  2  3
  2  3  1  0
  3  4  2  3
  4  5  1  0
  5  6  2  3
  6  7  1  0
  7  8  2  3
  8  3  1  0
  1  9  1  0
  9 10  2  3
 10 11  1  0
 11 12  2  3
 12 13  1  0
 13 14  2  3
 14  9  1  0
M  END
> <Name>
AZOBENZENE

> <SMILES>
N(=Nc1ccccc1)c2ccccc2

> <Reference>
NTP/TR-154

> <Id>
103-33-3

> <Actual Value>
NEG

> <Predicted Value>
0.001 NEG

> <Used>
1

> <Status>
Non-Carcinogen

> <iscarc>
0

$$$$
1;4-DICHLOROBENZENE
  SciTegic06161615512D

  8  8  0  0  0  0            999 V2000
    0.0000    0.0000    0.0000 Cl  0  0
    0.0000    0.0000    0.0000 C   0  0
    0.0000    0.0000    0.0000 C   0  0
    0.0000    0.0000    0.0000 C   0  0
    0.0000    0.0000    0.0000 C   0  0
    0.0000    0.0000    0.0000 Cl  0  0
    0.0000    0.0000    0.0000 C   0  0
    0.0000    0.0000    0.0000 C   0  0
  1  2  1  0
  2  3  2  3
  3  4  1  0
  4  5  2  3
  5  6  1  0
  5  7  1  0
  7  8  2  3
  8  2  1  0
M  END
> <Name>
1;4-DICHLOROBENZENE

> <SMILES>
Clc1ccc(Cl)cc1

> <Reference>
NTP/TR-319

> <Id>
106-46-7

> <Actual Value>
POS

> <Predicted Value>
1.000 POS

> <Used>
1

> <Status>
Carcinogen

> <iscarc>
1

$$$$
n-BUTYL CHLORIDE
  SciTegic06161615512D

  5  4  0  0  0  0            999 V2000
    0.0000    0.0000    0.0000 C   0  0
    0.0000    0.0000    0.0000 C   0  0
    0.0000    0.0000    0.0000 C   0  0
    0.0000    0.0000    0.0000 C   0  0
    0.0000    0.0000    0.0000 Cl  0  0
  1  2  1  0
  2  3  1  0
  3  4  1  0
  4  5  1  0
M  END
> <Name>
n-BUTYL CHLORIDE

> <SMILES>
CCCCCl

> <Reference>
NTP/TR-312

> <Id>
109-69-3

> <Actual Value>
NEG

> <Predicted Value>
0.102 NEG

> <Used>
1

> <Status>
Non-Carcinogen

> <iscarc>
0

$$$$
2;5-DITHIOBIUREA
  SciTegic06161615512D

  8  7  0  0  0  0            999 V2000
    0.0000    0.0000    0.0000 N   0  0
    0.0000    0.0000    0.0000 C   0  0
    0.0000    0.0000    0.0000 S   0  0
    0.0000    0.0000    0.0000 N   0  0
    0.0000    0.0000    0.0000 N   0  0
    0.0000    0.0000    0.0000 C   0  0
    0.0000    0.0000    0.0000 N   0  0
    0.0000    0.0000    0.0000 S   0  0
  1  2  1  0
  2  3  2  0
  2  4  1  0
  4  5  1  0
  5  6  1  0
  6  7  1  0
  6  8  2  0
M  END
> <Name>
2;5-DITHIOBIUREA

> <SMILES>
NC(=S)NNC(N)=S

> <Reference>
NTP/TR-132

> <Id>
142-46-1

> <Actual Value>
NEG

> <Predicted Value>
0.000 NEG

> <Used>
1

> <Status>
Non-Carcinogen

> <CanonicalTautomer>
Yes

> <NumberOfTautomers>
9

> <iscarc>
0

$$$$
MALAOXON
  SciTegic06161615512D

 19 18  0  0  0  0            999 V2000
    0.0000    0.0000    0.0000 C   0  0
    0.0000    0.0000    0.0000 C   0  0
    0.0000    0.0000    0.0000 O   0  0
    0.0000    0.0000    0.0000 C   0  0
    0.0000    0.0000    0.0000 O   0  0
    0.0000    0.0000    0.0000 C   0  0
    0.0000    0.0000    0.0000 C   0  0
    0.0000    0.0000    0.0000 S   0  0
    0.0000    0.0000    0.0000 P   0  0
    0.0000    0.0000    0.0000 O   0  0
    0.0000    0.0000    0.0000 O   0  0
    0.0000    0.0000    0.0000 C   0  0
    0.0000    0.0000    0.0000 O   0  0
    0.0000    0.0000    0.0000 C   0  0
    0.0000    0.0000    0.0000 C   0  0
    0.0000    0.0000    0.0000 O   0  0
    0.0000    0.0000    0.0000 O   0  0
    0.0000    0.0000    0.0000 C   0  0
    0.0000    0.0000    0.0000 C   0  0
  1  2  1  0
  2  3  1  0
  3  4  1  0
  4  5  2  0
  4  6  1  0
  6  7  1  0
  7  8  1  0
  8  9  1  0
  9 10  2  0
  9 11  1  0
 11 12  1  0
  9 13  1  0
 13 14  1  0
  7 15  1  0
 15 16  2  0
 15 17  1  0
 17 18  1  0
 18 19  1  0
M  END
> <Name>
MALAOXON

> <SMILES>
CCOC(=O)CC(SP(=O)(OC)OC)C(=O)OCC

> <Reference>
NTP/TR-135

> <Id>
1634-78-2

> <Actual Value>
NEG

> <Predicted Value>
0.000 NEG

> <Used>
1

> <Status>
Non-Carcinogen

> <iscarc>
0

$$$$
MALATHION
  SciTegic06161615512D

 19 18  0  0  0  0            999 V2000
    0.0000    0.0000    0.0000 C   0  0
    0.0000    0.0000    0.0000 C   0  0
    0.0000    0.0000    0.0000 O   0  0
    0.0000    0.0000    0.0000 C   0  0
    0.0000    0.0000    0.0000 O   0  0
    0.0000    0.0000    0.0000 C   0  0
    0.0000    0.0000    0.0000 C   0  0
    0.0000    0.0000    0.0000 S   0  0
    0.0000    0.0000    0.0000 P   0  0
    0.0000    0.0000    0.0000 S   0  0
    0.0000    0.0000    0.0000 O   0  0
    0.0000    0.0000    0.0000 C   0  0
    0.0000    0.0000    0.0000 O   0  0
    0.0000    0.0000    0.0000 C   0  0
    0.0000    0.0000    0.0000 C   0  0
    0.0000    0.0000    0.0000 O   0  0
    0.0000    0.0000    0.0000 O   0  0
    0.0000    0.0000    0.0000 C   0  0
    0.0000    0.0000    0.0000 C   0  0
  1  2  1  0
  2  3  1  0
  3  4  1  0
  4  5  2  0
  4  6  1  0
  6  7  1  0
  7  8  1  0
  8  9  1  0
  9 10  2  0
  9 11  1  0
 11 12  1  0
  9 13  1  0
 13 14  1  0
  7 15  1  0
 15 16  2  0
 15 17  1  0
 17 18  1  0
 18 19  1  0
M  END
> <Name>
MALATHION

> <SMILES>
CCOC(=O)CC(SP(=S)(OC)OC)C(=O)OCC

> <Reference>
NTP/TR-24

> <Id>
121-75-5

> <Actual Value>
NEG

> <Predicted Value>
0.000 NEG

> <Used>
1

> <Status>
Non-Carcinogen

> <iscarc>
0

$$$$
alpha-METHYLBENZYL ALCOHOL
  SciTegic06161615512D

  9  9  0  0  0  0            999 V2000
    0.0000    0.0000    0.0000 C   0  0
    0.0000    0.0000    0.0000 C   0  0
    0.0000    0.0000    0.0000 O   0  0
    0.0000    0.0000    0.0000 C   0  0
    0.0000    0.0000    0.0000 C   0  0
    0.0000    0.0000    0.0000 C   0  0
    0.0000    0.0000    0.0000 C   0  0
    0.0000    0.0000    0.0000 C   0  0
    0.0000    0.0000    0.0000 C   0  0
  1  2  1  0
  2  3  1  0
  2  4  1  0
  4  5  2  3
  5  6  1  0
  6  7  2  3
  7  8  1  0
  8  9  2  3
  9  4  1  0
M  END
> <Name>
alpha-METHYLBENZYL ALCOHOL

> <SMILES>
CC(O)c1ccccc1

> <Reference>
NTP/TR-369

> <Id>
98-85-1

> <Actual Value>
NEG

> <Predicted Value>
0.000 NEG

> <Used>
1

> <Status>
Non-Carcinogen

> <iscarc>
0

$$$$
ANILINE.HCL
  SciTegic06161615512D

  7  7  0  0  0  0            999 V2000
    0.0000    0.0000    0.0000 N   0  0
    0.0000    0.0000    0.0000 C   0  0
    0.0000    0.0000    0.0000 C   0  0
    0.0000    0.0000    0.0000 C   0  0
    0.0000    0.0000    0.0000 C   0  0
    0.0000    0.0000    0.0000 C   0  0
    0.0000    0.0000    0.0000 C   0  0
  1  2  1  0
  2  3  2  3
  3  4  1  0
  4  5  2  3
  5  6  1  0
  6  7  2  3
  7  2  1  0
M  END
> <Name>
ANILINE.HCL

> <SMILES>
Nc1ccccc1

> <Reference>
NTP/TR-130

> <Id>
142-04-1

> <Actual Value>
NEG

> <Predicted Value>
0.003 NEG

> <Used>
1

> <Status>
Non-Carcinogen

> <iscarc>
0

$$$$
BENZYL ALCOHOL
  SciTegic06161615512D

  8  8  0  0  0  0            999 V2000
    0.0000    0.0000    0.0000 O   0  0
    0.0000    0.0000    0.0000 C   0  0
    0.0000    0.0000    0.0000 C   0  0
    0.0000    0.0000    0.0000 C   0  0
    0.0000    0.0000    0.0000 C   0  0
    0.0000    0.0000    0.0000 C   0  0
    0.0000    0.0000    0.0000 C   0  0
    0.0000    0.0000    0.0000 C   0  0
  1  2  1  0
  2  3  1  0
  3  4  2  3
  4  5  1  0
  5  6  2  3
  6  7  1  0
  7  8  2  3
  8  3  1  0
M  END
> <Name>
BENZYL ALCOHOL

> <SMILES>
OCc1ccccc1

> <Reference>
NTP/TR-343

> <Id>
100-51-6

> <Actual Value>
NEG

> <Predicted Value>
0.000 NEG

> <Used>
1

> <Status>
Non-Carcinogen

> <iscarc>
0

$$$$
n-METHYLOLACRYLAMIDE
  SciTegic06161615512D

  7  6  0  0  0  0            999 V2000
    0.0000    0.0000    0.0000 O   0  0
    0.0000    0.0000    0.0000 C   0  0
    0.0000    0.0000    0.0000 N   0  0
    0.0000    0.0000    0.0000 C   0  0
    0.0000    0.0000    0.0000 O   0  0
    0.0000    0.0000    0.0000 C   0  0
    0.0000    0.0000    0.0000 C   0  0
  1  2  1  0
  2  3  1  0
  3  4  1  0
  4  5  2  0
  4  6  1  0
  6  7  2  0
M  END
> <Name>
n-METHYLOLACRYLAMIDE

> <SMILES>
OCNC(=O)C=C

> <Reference>
NTP/TR-352

> <Id>
924-42-5

> <Actual Value>
NEG

> <Used>
0

> <Status>
Non-Carcinogen

> <iscarc>
0

$$$$
p-ANISIDINE.HCL
  SciTegic06161615512D

  9  9  0  0  0  0            999 V2000
    0.0000    0.0000    0.0000 C   0  0
    0.0000    0.0000    0.0000 O   0  0
    0.0000    0.0000    0.0000 C   0  0
    0.0000    0.0000    0.0000 C   0  0
    0.0000    0.0000    0.0000 C   0  0
    0.0000    0.0000    0.0000 C   0  0
    0.0000    0.0000    0.0000 N   0  0
    0.0000    0.0000    0.0000 C   0  0
    0.0000    0.0000    0.0000 C   0  0
  1  2  1  0
  2  3  1  0
  3  4  2  3
  4  5  1  0
  5  6  2  3
  6  7  1  0
  6  8  1  0
  8  9  2  3
  9  3  1  0
M  END
> <Name>
p-ANISIDINE.HCL

> <SMILES>
COc1ccc(N)cc1

> <Reference>
NTP/TR-116

> <Id>
20265-97-8

> <Actual Value>
NEG

> <Predicted Value>
0.820 POS

> <Used>
1

> <Status>
Non-Carcinogen

> <iscarc>
0

$$$$
CARBROMAL
  SciTegic06161615512D

 12 11  0  0  0  0            999 V2000
    0.0000    0.0000    0.0000 C   0  0
    0.0000    0.0000    0.0000 C   0  0
    0.0000    0.0000    0.0000 C   0  0
    0.0000    0.0000    0.0000 Br  0  0
    0.0000    0.0000    0.0000 C   0  0
    0.0000    0.0000    0.0000 C   0  0
    0.0000    0.0000    0.0000 C   0  0
    0.0000    0.0000    0.0000 O   0  0
    0.0000    0.0000    0.0000 N   0  0
    0.0000    0.0000    0.0000 C   0  0
    0.0000    0.0000    0.0000 N   0  0
    0.0000    0.0000    0.0000 O   0  0
  1  2  1  0
  2  3  1  0
  3  4  1  0
  3  5  1  0
  5  6  1  0
  3  7  1  0
  7  8  2  0
  7  9  1  0
  9 10  1  0
 10 11  1  0
 10 12  2  0
M  END
> <Name>
CARBROMAL

> <SMILES>
CCC(Br)(CC)C(=O)NC(N)=O

> <Reference>
NTP/TR-173

> <Id>
77-65-6

> <Actual Value>
NEG

> <Predicted Value>
0.000 NEG

> <Used>
1

> <Status>
Non-Carcinogen

> <CanonicalTautomer>
Yes

> <NumberOfTautomers>
3

> <iscarc>
0

$$$$
DAPSONE
  SciTegic06161615512D

 17 18  0  0  0  0            999 V2000
    0.0000    0.0000    0.0000 N   0  0
    0.0000    0.0000    0.0000 C   0  0
    0.0000    0.0000    0.0000 C   0  0
    0.0000    0.0000    0.0000 C   0  0
    0.0000    0.0000    0.0000 C   0  0
    0.0000    0.0000    0.0000 C   0  0
    0.0000    0.0000    0.0000 C   0  0
    0.0000    0.0000    0.0000 S   0  0
    0.0000    0.0000    0.0000 O   0  0
    0.0000    0.0000    0.0000 O   0  0
    0.0000    0.0000    0.0000 C   0  0
    0.0000    0.0000    0.0000 C   0  0
    0.0000    0.0000    0.0000 C   0  0
    0.0000    0.0000    0.0000 C   0  0
    0.0000    0.0000    0.0000 N   0  0
    0.0000    0.0000    0.0000 C   0  0
    0.0000    0.0000    0.0000 C   0  0
  1  2  1  0
  2  3  2  3
  3  4  1  0
  4  5  2  3
  5  6  1  0
  6  7  2  3
  7  2  1  0
  5  8  1  0
  8  9  2  0
  8 10  2  0
  8 11  1  0
 11 12  2  3
 12 13  1  0
 13 14  2  3
 14 15  1  0
 14 16  1  0
 16 17  2  3
 17 11  1  0
M  END
> <Name>
DAPSONE

> <SMILES>
Nc1ccc(cc1)S(=O)(=O)c2ccc(N)cc2

> <Reference>
NTP/TR-20

> <Id>
80-08-0

> <Actual Value>
NEG

> <Predicted Value>
0.000 NEG

> <Used>
1

> <Status>
Non-Carcinogen

> <iscarc>
0

$$$$
1-PHENYL-2-THIOUREA
  SciTegic06161615512D

 10 10  0  0  0  0            999 V2000
    0.0000    0.0000    0.0000 N   0  0
    0.0000    0.0000    0.0000 C   0  0
    0.0000    0.0000    0.0000 S   0  0
    0.0000    0.0000    0.0000 N   0  0
    0.0000    0.0000    0.0000 C   0  0
    0.0000    0.0000    0.0000 C   0  0
    0.0000    0.0000    0.0000 C   0  0
    0.0000    0.0000    0.0000 C   0  0
    0.0000    0.0000    0.0000 C   0  0
    0.0000    0.0000    0.0000 C   0  0
  1  2  1  0
  2  3  2  0
  2  4  1  0
  4  5  1  0
  5  6  2  3
  6  7  1  0
  7  8  2  3
  8  9  1  0
  9 10  2  3
 10  5  1  0
M  END
> <Name>
1-PHENYL-2-THIOUREA

> <SMILES>
NC(=S)Nc1ccccc1

> <Reference>
NTP/TR-148

> <Id>
103-85-5

> <Actual Value>
NEG

> <Predicted Value>
0.000 NEG

> <Used>
1

> <Status>
Non-Carcinogen

> <CanonicalTautomer>
Yes

> <NumberOfTautomers>
3

> <iscarc>
0

$$$$
p-CHLOROANILINE
  SciTegic06161615512D

  8  8  0  0  0  0            999 V2000
    0.0000    0.0000    0.0000 N   0  0
    0.0000    0.0000    0.0000 C   0  0
    0.0000    0.0000    0.0000 C   0  0
    0.0000    0.0000    0.0000 C   0  0
    0.0000    0.0000    0.0000 C   0  0
    0.0000    0.0000    0.0000 Cl  0  0
    0.0000    0.0000    0.0000 C   0  0
    0.0000    0.0000    0.0000 C   0  0
  1  2  1  0
  2  3  2  3
  3  4  1  0
  4  5  2  3
  5  6  1  0
  5  7  1  0
  7  8  2  3
  8  2  1  0
M  END
> <Name>
p-CHLOROANILINE

> <SMILES>
Nc1ccc(Cl)cc1

> <Reference>
NTP/TR-351

> <Id>
20265-96-7

> <Actual Value>
POS

> <Predicted Value>
0.731 POS

> <Used>
1

> <Status>
Carcinogen

> <iscarc>
1

$$$$
CAPROLACTAM
  SciTegic06161615512D

  8  8  0  0  0  0            999 V2000
    0.0000    0.0000    0.0000 O   0  0
    0.0000    0.0000    0.0000 C   0  0
    0.0000    0.0000    0.0000 C   0  0
    0.0000    0.0000    0.0000 C   0  0
    0.0000    0.0000    0.0000 C   0  0
    0.0000    0.0000    0.0000 C   0  0
    0.0000    0.0000    0.0000 C   0  0
    0.0000    0.0000    0.0000 N   0  0
  1  2  2  0
  2  3  1  0
  3  4  1  0
  4  5  1  0
  5  6  1  0
  6  7  1  0
  7  8  1  0
  8  2  1  0
M  END
> <Name>
CAPROLACTAM

> <SMILES>
O=C1CCCCCN1

> <Reference>
NTP/TR-214

> <Id>
105-60-2

> <Actual Value>
NEG

> <Predicted Value>
0.000 NEG

> <Used>
1

> <Status>
Non-Carcinogen

> <iscarc>
0

$$$$
ETHYLENE GLYCOL
  SciTegic06161615512D

  4  3  0  0  0  0            999 V2000
    0.0000    0.0000    0.0000 O   0  0
    0.0000    0.0000    0.0000 C   0  0
    0.0000    0.0000    0.0000 C   0  0
    0.0000    0.0000    0.0000 O   0  0
  1  2  1  0
  2  3  1  0
  3  4  1  0
M  END
> <Name>
ETHYLENE GLYCOL

> <SMILES>
OCCO

> <Reference>
NTP/TR-413

> <Id>
107-21-1

> <Actual Value>
NEG

> <Predicted Value>
0.003 NEG

> <Used>
1

> <Status>
Non-Carcinogen

> <iscarc>
0

$$$$
PHENFORMIN.HCl
  SciTegic06161615512D

 15 15  0  0  0  0            999 V2000
    0.0000    0.0000    0.0000 N   0  0
    0.0000    0.0000    0.0000 C   0  0
    0.0000    0.0000    0.0000 N   0  0
    0.0000    0.0000    0.0000 N   0  0
    0.0000    0.0000    0.0000 C   0  0
    0.0000    0.0000    0.0000 N   0  0
    0.0000    0.0000    0.0000 N   0  0
    0.0000    0.0000    0.0000 C   0  0
    0.0000    0.0000    0.0000 C   0  0
    0.0000    0.0000    0.0000 C   0  0
    0.0000    0.0000    0.0000 C   0  0
    0.0000    0.0000    0.0000 C   0  0
    0.0000    0.0000    0.0000 C   0  0
    0.0000    0.0000    0.0000 C   0  0
    0.0000    0.0000    0.0000 C   0  0
  1  2  2  0
  2  3  1  0
  2  4  1  0
  4  5  2  3
  5  6  1  0
  5  7  1  0
  7  8  1  0
  8  9  1  0
  9 10  1  0
 10 11  2  3
 11 12  1  0
 12 13  2  3
 13 14  1  0
 14 15  2  3
 15 10  1  0
M  END
> <Name>
PHENFORMIN.HCl

> <SMILES>
NC(=N)NC(=N)NCCc1ccccc1

> <Reference>
NTP/TR-7

> <Id>
114-86-3

> <Actual Value>
NEG

> <Predicted Value>
0.000 NEG

> <Used>
1

> <Status>
Non-Carcinogen

> <CanonicalTautomer>
Yes

> <NumberOfTautomers>
8

> <iscarc>
0

$$$$
4;4'-METHYLENEDIANILINE HCL
  SciTegic06161615512D

 15 16  0  0  0  0            999 V2000
    0.0000    0.0000    0.0000 N   0  0
    0.0000    0.0000    0.0000 C   0  0
    0.0000    0.0000    0.0000 C   0  0
    0.0000    0.0000    0.0000 C   0  0
    0.0000    0.0000    0.0000 C   0  0
    0.0000    0.0000    0.0000 C   0  0
    0.0000    0.0000    0.0000 C   0  0
    0.0000    0.0000    0.0000 C   0  0
    0.0000    0.0000    0.0000 C   0  0
    0.0000    0.0000    0.0000 C   0  0
    0.0000    0.0000    0.0000 N   0  0
    0.0000    0.0000    0.0000 C   0  0
    0.0000    0.0000    0.0000 C   0  0
    0.0000    0.0000    0.0000 C   0  0
    0.0000    0.0000    0.0000 C   0  0
  1  2  1  0
  2  3  2  3
  3  4  1  0
  4  5  2  3
  5  6  1  0
  6  7  1  0
  7  8  2  3
  8  9  1  0
  9 10  2  3
 10 11  1  0
 10 12  1  0
 12 13  2  3
 13  7  1  0
  5 14  1  0
 14 15  2  3
 15  2  1  0
M  END
> <Name>
4;4'-METHYLENEDIANILINE HCL

> <SMILES>
Nc2ccc(Cc1ccc(N)cc1)cc2

> <Reference>
NTP/TR-248

> <Id>
13552-44-8

> <Actual Value>
POS

> <Predicted Value>
1.000 POS

> <Used>
1

> <Status>
Carcinogen

> <iscarc>
1

$$$$
1;2-DIBROMOETHANE
  SciTegic06161615512D

  4  3  0  0  0  0            999 V2000
    0.0000    0.0000    0.0000 Br  0  0
    0.0000    0.0000    0.0000 C   0  0
    0.0000    0.0000    0.0000 C   0  0
    0.0000    0.0000    0.0000 Br  0  0
  1  2  1  0
  2  3  1  0
  3  4  1  0
M  END
> <Name>
1;2-DIBROMOETHANE

> <SMILES>
BrCCBr

> <Reference>
NTP/TR-210

> <Id>
106-93-4

> <Actual Value>
POS

> <Predicted Value>
0.999 POS

> <Used>
1

> <Status>
Carcinogen

> <iscarc>
1

$$$$
1;2-DICHLOROBENZENE
  SciTegic06161615512D

  8  8  0  0  0  0            999 V2000
    0.0000    0.0000    0.0000 Cl  0  0
    0.0000    0.0000    0.0000 C   0  0
    0.0000    0.0000    0.0000 C   0  0
    0.0000    0.0000    0.0000 C   0  0
    0.0000    0.0000    0.0000 C   0  0
    0.0000    0.0000    0.0000 C   0  0
    0.0000    0.0000    0.0000 C   0  0
    0.0000    0.0000    0.0000 Cl  0  0
  1  2  1  0
  2  3  2  3
  3  4  1  0
  4  5  2  3
  5  6  1  0
  6  7  2  3
  7  2  1  0
  7  8  1  0
M  END
> <Name>
1;2-DICHLOROBENZENE

> <SMILES>
Clc1ccccc1Cl

> <Reference>
NTP/TR-255

> <Id>
95-50-1

> <Actual Value>
NEG

> <Predicted Value>
0.002 NEG

> <Used>
1

> <Status>
Non-Carcinogen

> <iscarc>
0

$$$$
dl-MENTHOL
  SciTegic06161615512D

 11 11  0  0  0  0            999 V2000
    0.0000    0.0000    0.0000 C   0  0
    0.0000    0.0000    0.0000 C   0  0
    0.0000    0.0000    0.0000 C   0  0
    0.0000    0.0000    0.0000 C   0  0
    0.0000    0.0000    0.0000 C   0  0
    0.0000    0.0000    0.0000 C   0  0
    0.0000    0.0000    0.0000 C   0  0
    0.0000    0.0000    0.0000 C   0  0
    0.0000    0.0000    0.0000 C   0  0
    0.0000    0.0000    0.0000 C   0  0
    0.0000    0.0000    0.0000 O   0  0
  1  2  1  0
  2  3  1  0
  2  4  1  0
  4  5  1  0
  5  6  1  0
  6  7  1  0
  7  8  1  0
  7  9  1  0
  9 10  1  0
 10  4  1  0
 10 11  1  0
M  END
> <Name>
dl-MENTHOL

> <SMILES>
CC(C)C1CCC(C)CC1O

> <Reference>
NTP/TR-98

> <Id>
89-78-1

> <Actual Value>
NEG

> <Predicted Value>
0.000 NEG

> <Used>
1

> <Status>
Non-Carcinogen

> <iscarc>
0

$$$$
TRIS(2-ETHYLHEXYL)PHOSPHATE
  SciTegic06161615512D

 29 28  0  0  0  0            999 V2000
    0.0000    0.0000    0.0000 C   0  0
    0.0000    0.0000    0.0000 C   0  0
    0.0000    0.0000    0.0000 C   0  0
    0.0000    0.0000    0.0000 C   0  0
    0.0000    0.0000    0.0000 C   0  0
    0.0000    0.0000    0.0000 C   0  0
    0.0000    0.0000    0.0000 C   0  0
    0.0000    0.0000    0.0000 C   0  0
    0.0000    0.0000    0.0000 O   0  0
    0.0000    0.0000    0.0000 P   0  0
    0.0000    0.0000    0.0000 O   0  0
    0.0000    0.0000    0.0000 O   0  0
    0.0000    0.0000    0.0000 C   0  0
    0.0000    0.0000    0.0000 C   0  0
    0.0000    0.0000    0.0000 C   0  0
    0.0000    0.0000    0.0000 C   0  0
    0.0000    0.0000    0.0000 C   0  0
    0.0000    0.0000    0.0000 C   0  0
    0.0000    0.0000    0.0000 C   0  0
    0.0000    0.0000    0.0000 C   0  0
    0.0000    0.0000    0.0000 O   0  0
    0.0000    0.0000    0.0000 C   0  0
    0.0000    0.0000    0.0000 C   0  0
    0.0000    0.0000    0.0000 C   0  0
    0.0000    0.0000    0.0000 C   0  0
    0.0000    0.0000    0.0000 C   0  0
    0.0000    0.0000    0.0000 C   0  0
    0.0000    0.0000    0.0000 C   0  0
    0.0000    0.0000    0.0000 C   0  0
  1  2  1  0
  2  3  1  0
  3  4  1  0
  4  5  1  0
  5  6  1  0
  6  7  1  0
  5  8  1  0
  8  9  1  0
  9 10  1  0
 10 11  2  0
 10 12  1  0
 12 13  1  0
 13 14  1  0
 14 15  1  0
 15 16  1  0
 14 17  1  0
 17 18  1  0
 18 19  1  0
 19 20  1  0
 10 21  1  0
 21 22  1  0
 22 23  1  0
 23 24  1  0
 24 25  1  0
 23 26  1  0
 26 27  1  0
 27 28  1  0
 28 29  1  0
M  END
> <Name>
TRIS(2-ETHYLHEXYL)PHOSPHATE

> <SMILES>
CCCCC(CC)COP(=O)(OCC(CC)CCCC)OCC(CC)CCCC

> <Reference>
NTP/TR-274

> <Id>
78-42-2

> <Actual Value>
NEG

> <Predicted Value>
0.000 NEG

> <Used>
1

> <Status>
Non-Carcinogen

> <iscarc>
0

$$$$
CHLORPROPAMIDE
  SciTegic06161615512D

 17 17  0  0  0  0            999 V2000
    0.0000    0.0000    0.0000 C   0  0
    0.0000    0.0000    0.0000 C   0  0
    0.0000    0.0000    0.0000 C   0  0
    0.0000    0.0000    0.0000 N   0  0
    0.0000    0.0000    0.0000 C   0  0
    0.0000    0.0000    0.0000 O   0  0
    0.0000    0.0000    0.0000 N   0  0
    0.0000    0.0000    0.0000 S   0  0
    0.0000    0.0000    0.0000 O   0  0
    0.0000    0.0000    0.0000 O   0  0
    0.0000    0.0000    0.0000 C   0  0
    0.0000    0.0000    0.0000 C   0  0
    0.0000    0.0000    0.0000 C   0  0
    0.0000    0.0000    0.0000 C   0  0
    0.0000    0.0000    0.0000 Cl  0  0
    0.0000    0.0000    0.0000 C   0  0
    0.0000    0.0000    0.0000 C   0  0
  1  2  1  0
  2  3  1  0
  3  4  1  0
  4  5  1  0
  5  6  2  0
  5  7  1  0
  7  8  1  0
  8  9  2  0
  8 10  2  0
  8 11  1  0
 11 12  2  3
 12 13  1  0
 13 14  2  3
 14 15  1  0
 14 16  1  0
 16 17  2  3
 17 11  1  0
M  END
> <Name>
CHLORPROPAMIDE

> <SMILES>
CCCNC(=O)NS(=O)(=O)c1ccc(Cl)cc1

> <Reference>
NTP/TR-45

> <Id>
94-20-2

> <Actual Value>
NEG

> <Predicted Value>
0.000 NEG

> <Used>
1

> <Status>
Non-Carcinogen

> <CanonicalTautomer>
Yes

> <NumberOfTautomers>
2

> <iscarc>
0

$$$$
ISOBUTYL NITRITE
  SciTegic06161615512D

  7  6  0  0  0  0            999 V2000
    0.0000    0.0000    0.0000 C   0  0
    0.0000    0.0000    0.0000 C   0  0
    0.0000    0.0000    0.0000 C   0  0
    0.0000    0.0000    0.0000 C   0  0
    0.0000    0.0000    0.0000 O   0  0
    0.0000    0.0000    0.0000 N   0  0
    0.0000    0.0000    0.0000 O   0  0
  1  2  1  0
  2  3  1  0
  2  4  1  0
  4  5  1  0
  5  6  1  0
  6  7  2  0
M  END
> <Name>
ISOBUTYL NITRITE

> <SMILES>
CC(C)CON=O

> <Reference>
NTP/TR-448

> <Id>
542-56-3

> <Actual Value>
POS

> <Predicted Value>
1.000 POS

> <Used>
1

> <Status>
Carcinogen

> <iscarc>
1

$$$$
TOLBUTAMIDE
  SciTegic06161615512D

 18 18  0  0  0  0            999 V2000
    0.0000    0.0000    0.0000 C   0  0
    0.0000    0.0000    0.0000 C   0  0
    0.0000    0.0000    0.0000 C   0  0
    0.0000    0.0000    0.0000 C   0  0
    0.0000    0.0000    0.0000 N   0  0
    0.0000    0.0000    0.0000 C   0  0
    0.0000    0.0000    0.0000 O   0  0
    0.0000    0.0000    0.0000 N   0  0
    0.0000    0.0000    0.0000 S   0  0
    0.0000    0.0000    0.0000 O   0  0
    0.0000    0.0000    0.0000 O   0  0
    0.0000    0.0000    0.0000 C   0  0
    0.0000    0.0000    0.0000 C   0  0
    0.0000    0.0000    0.0000 C   0  0
    0.0000    0.0000    0.0000 C   0  0
    0.0000    0.0000    0.0000 C   0  0
    0.0000    0.0000    0.0000 C   0  0
    0.0000    0.0000    0.0000 C   0  0
  1  2  1  0
  2  3  1  0
  3  4  1  0
  4  5  1  0
  5  6  1  0
  6  7  2  0
  6  8  1  0
  8  9  1  0
  9 10  2  0
  9 11  2  0
  9 12  1  0
 12 13  2  3
 13 14  1  0
 14 15  2  3
 15 16  1  0
 15 17  1  0
 17 18  2  3
 18 12  1  0
M  END
> <Name>
TOLBUTAMIDE

> <SMILES>
CCCCNC(=O)NS(=O)(=O)c1ccc(C)cc1

> <Reference>
NTP/TR-31

> <Id>
64-77-7

> <Actual Value>
NEG

> <Predicted Value>
0.000 NEG

> <Used>
1

> <Status>
Non-Carcinogen

> <CanonicalTautomer>
Yes

> <NumberOfTautomers>
2

> <iscarc>
0

$$$$
ETHYLENE THIOUREA
  SciTegic06161615512D

  6  6  0  0  0  0            999 V2000
    0.0000    0.0000    0.0000 S   0  0
    0.0000    0.0000    0.0000 C   0  0
    0.0000    0.0000    0.0000 N   0  0
    0.0000    0.0000    0.0000 C   0  0
    0.0000    0.0000    0.0000 C   0  0
    0.0000    0.0000    0.0000 N   0  0
  1  2  2  0
  2  3  1  0
  3  4  1  0
  4  5  1  0
  5  6  1  0
  6  2  1  0
M  END
> <Name>
ETHYLENE THIOUREA

> <SMILES>
S=C1NCCN1

> <Reference>
NTP/TR-388

> <Id>
96-45-7

> <Actual Value>
POS

> <Predicted Value>
1.000 POS

> <Used>
1

> <Status>
Carcinogen

> <CanonicalTautomer>
Yes

> <NumberOfTautomers>
3

> <iscarc>
1

$$$$
ACETOHEXAMIDE
  SciTegic06161615512D

 22 23  0  0  0  0            999 V2000
    0.0000    0.0000    0.0000 C   0  0
    0.0000    0.0000    0.0000 C   0  0
    0.0000    0.0000    0.0000 O   0  0
    0.0000    0.0000    0.0000 C   0  0
    0.0000    0.0000    0.0000 C   0  0
    0.0000    0.0000    0.0000 C   0  0
    0.0000    0.0000    0.0000 C   0  0
    0.0000    0.0000    0.0000 C   0  0
    0.0000    0.0000    0.0000 C   0  0
    0.0000    0.0000    0.0000 S   0  0
    0.0000    0.0000    0.0000 O   0  0
    0.0000    0.0000    0.0000 O   0  0
    0.0000    0.0000    0.0000 N   0  0
    0.0000    0.0000    0.0000 C   0  0
    0.0000    0.0000    0.0000 O   0  0
    0.0000    0.0000    0.0000 N   0  0
    0.0000    0.0000    0.0000 C   0  0
    0.0000    0.0000    0.0000 C   0  0
    0.0000    0.0000    0.0000 C   0  0
    0.0000    0.0000    0.0000 C   0  0
    0.0000    0.0000    0.0000 C   0  0
    0.0000    0.0000    0.0000 C   0  0
  1  2  1  0
  2  3  2  0
  2  4  1  0
  4  5  2  3
  5  6  1  0
  6  7  2  3
  7  8  1  0
  8  9  2  3
  9  4  1  0
  7 10  1  0
 10 11  2  0
 10 12  2  0
 10 13  1  0
 13 14  1  0
 14 15  2  0
 14 16  1  0
 16 17  1  0
 17 18  1  0
 18 19  1  0
 19 20  1  0
 20 21  1  0
 21 22  1  0
 22 17  1  0
M  END
> <Name>
ACETOHEXAMIDE

> <SMILES>
CC(=O)c1ccc(cc1)S(=O)(=O)NC(=O)NC2CCCCC2

> <Reference>
NTP/TR-50

> <Id>
968-81-0

> <Actual Value>
NEG

> <Predicted Value>
0.000 NEG

> <Used>
1

> <Status>
Non-Carcinogen

> <CanonicalTautomer>
Yes

> <NumberOfTautomers>
2

> <iscarc>
0

$$$$
2-CHLOROACETOPHENONE
  SciTegic06161615512D

 10 10  0  0  0  0            999 V2000
    0.0000    0.0000    0.0000 Cl  0  0
    0.0000    0.0000    0.0000 C   0  0
    0.0000    0.0000    0.0000 C   0  0
    0.0000    0.0000    0.0000 O   0  0
    0.0000    0.0000    0.0000 C   0  0
    0.0000    0.0000    0.0000 C   0  0
    0.0000    0.0000    0.0000 C   0  0
    0.0000    0.0000    0.0000 C   0  0
    0.0000    0.0000    0.0000 C   0  0
    0.0000    0.0000    0.0000 C   0  0
  1  2  1  0
  2  3  1  0
  3  4  2  0
  3  5  1  0
  5  6  2  3
  6  7  1  0
  7  8  2  3
  8  9  1  0
  9 10  2  3
 10  5  1  0
M  END
> <Name>
2-CHLOROACETOPHENONE

> <SMILES>
ClCC(=O)c1ccccc1

> <Reference>
NTP/TR-379

> <Id>
532-27-4

> <Actual Value>
NEG

> <Predicted Value>
0.002 NEG

> <Used>
1

> <Status>
Non-Carcinogen

> <iscarc>
0

$$$$
DIOXATHION
  SciTegic06161615512D

 24 24  0  0  0  0            999 V2000
    0.0000    0.0000    0.0000 C   0  0
    0.0000    0.0000    0.0000 C   0  0
    0.0000    0.0000    0.0000 O   0  0
    0.0000    0.0000    0.0000 P   0  0
    0.0000    0.0000    0.0000 S   0  0
    0.0000    0.0000    0.0000 O   0  0
    0.0000    0.0000    0.0000 C   0  0
    0.0000    0.0000    0.0000 C   0  0
    0.0000    0.0000    0.0000 S   0  0
    0.0000    0.0000    0.0000 C   0  0
    0.0000    0.0000    0.0000 O   0  0
    0.0000    0.0000    0.0000 C   0  0
    0.0000    0.0000    0.0000 C   0  0
    0.0000    0.0000    0.0000 O   0  0
    0.0000    0.0000    0.0000 C   0  0
    0.0000    0.0000    0.0000 S   0  0
    0.0000    0.0000    0.0000 P   0  0
    0.0000    0.0000    0.0000 S   0  0
    0.0000    0.0000    0.0000 O   0  0
    0.0000    0.0000    0.0000 C   0  0
    0.0000    0.0000    0.0000 C   0  0
    0.0000    0.0000    0.0000 O   0  0
    0.0000    0.0000    0.0000 C   0  0
    0.0000    0.0000    0.0000 C   0  0
  1  2  1  0
  2  3  1  0
  3  4  1  0
  4  5  2  0
  4  6  1  0
  6  7  1  0
  7  8  1  0
  4  9  1  0
  9 10  1  0
 10 11  1  0
 11 12  1  0
 12 13  1  0
 13 14  1  0
 14 15  1  0
 15 10  1  0
 15 16  1  0
 16 17  1  0
 17 18  2  0
 17 19  1  0
 19 20  1  0
 20 21  1  0
 17 22  1  0
 22 23  1  0
 23 24  1  0
M  END
> <Name>
DIOXATHION

> <SMILES>
CCOP(=S)(OCC)SC1OCCOC1SP(=S)(OCC)OCC

> <Reference>
NTP/TR-125

> <Id>
78-34-2

> <Actual Value>
NEG

> <Predicted Value>
0.000 NEG

> <Used>
1

> <Status>
Non-Carcinogen

> <iscarc>
0

$$$$
3;4-DIHYDROCOUMARIN
  SciTegic06161615512D

 11 12  0  0  0  0            999 V2000
    0.0000    0.0000    0.0000 O   0  0
    0.0000    0.0000    0.0000 C   0  0
    0.0000    0.0000    0.0000 C   0  0
    0.0000    0.0000    0.0000 C   0  0
    0.0000    0.0000    0.0000 C   0  0
    0.0000    0.0000    0.0000 C   0  0
    0.0000    0.0000    0.0000 C   0  0
    0.0000    0.0000    0.0000 C   0  0
    0.0000    0.0000    0.0000 C   0  0
    0.0000    0.0000    0.0000 C   0  0
    0.0000    0.0000    0.0000 O   0  0
  1  2  2  0
  2  3  1  0
  3  4  1  0
  4  5  1  0
  5  6  2  3
  6  7  1  0
  7  8  2  3
  8  9  1  0
  9 10  2  3
 10  5  1  0
 10 11  1  0
 11  2  1  0
M  END
> <Name>
3;4-DIHYDROCOUMARIN

> <SMILES>
O=C2CCc1ccccc1O2

> <Reference>
NTP/TR-423

> <Id>
119-84-6

> <Actual Value>
NEG

> <Predicted Value>
0.000 NEG

> <Used>
1

> <Status>
Non-Carcinogen

> <iscarc>
0

$$$$
BUTYLATED HYDROXYTOLUENE
  SciTegic06161615512D

 16 16  0  0  0  0            999 V2000
    0.0000    0.0000    0.0000 C   0  0
    0.0000    0.0000    0.0000 C   0  0
    0.0000    0.0000    0.0000 C   0  0
    0.0000    0.0000    0.0000 C   0  0
    0.0000    0.0000    0.0000 C   0  0
    0.0000    0.0000    0.0000 O   0  0
    0.0000    0.0000    0.0000 C   0  0
    0.0000    0.0000    0.0000 C   0  0
    0.0000    0.0000    0.0000 C   0  0
    0.0000    0.0000    0.0000 C   0  0
    0.0000    0.0000    0.0000 C   0  0
    0.0000    0.0000    0.0000 C   0  0
    0.0000    0.0000    0.0000 C   0  0
    0.0000    0.0000    0.0000 C   0  0
    0.0000    0.0000    0.0000 C   0  0
    0.0000    0.0000    0.0000 C   0  0
  1  2  1  0
  2  3  2  3
  3  4  1  0
  4  5  2  3
  5  6  1  0
  5  7  1  0
  7  8  2  3
  8  2  1  0
  7  9  1  0
  9 10  1  0
  9 11  1  0
  9 12  1  0
  4 13  1  0
 13 14  1  0
 13 15  1  0
 13 16  1  0
M  END
> <Name>
BUTYLATED HYDROXYTOLUENE

> <SMILES>
Cc1cc(c(O)c(c1)C(C)(C)C)C(C)(C)C

> <Reference>
NTP/TR-150

> <Id>
128-37-0

> <Actual Value>
NEG

> <Predicted Value>
0.000 NEG

> <Used>
1

> <Status>
Non-Carcinogen

> <iscarc>
0

$$$$
PROPYLENE OXIDE
  SciTegic06161615512D

  4  4  0  0  0  0            999 V2000
    0.0000    0.0000    0.0000 C   0  0
    0.0000    0.0000    0.0000 C   0  0
    0.0000    0.0000    0.0000 C   0  0
    0.0000    0.0000    0.0000 O   0  0
  1  2  1  0
  2  3  1  0
  3  4  1  0
  4  2  1  0
M  END
> <Name>
PROPYLENE OXIDE

> <SMILES>
CC1CO1

> <Reference>
NTP/TR-267

> <Id>
75-56-9

> <Actual Value>
POS

> <Predicted Value>
1.000 POS

> <Used>
1

> <Status>
Carcinogen

> <iscarc>
1

$$$$
DISPERSE YELLOW 3
  SciTegic06161615512D

 20 21  0  0  0  0            999 V2000
    0.0000    0.0000    0.0000 C   0  0
    0.0000    0.0000    0.0000 C   0  0
    0.0000    0.0000    0.0000 O   0  0
    0.0000    0.0000    0.0000 N   0  0
    0.0000    0.0000    0.0000 C   0  0
    0.0000    0.0000    0.0000 C   0  0
    0.0000    0.0000    0.0000 C   0  0
    0.0000    0.0000    0.0000 C   0  0
    0.0000    0.0000    0.0000 N   0  0
    0.0000    0.0000    0.0000 N   0  0
    0.0000    0.0000    0.0000 C   0  0
    0.0000    0.0000    0.0000 C   0  0
    0.0000    0.0000    0.0000 C   0  0
    0.0000    0.0000    0.0000 C   0  0
    0.0000    0.0000    0.0000 C   0  0
    0.0000    0.0000    0.0000 C   0  0
    0.0000    0.0000    0.0000 C   0  0
    0.0000    0.0000    0.0000 O   0  0
    0.0000    0.0000    0.0000 C   0  0
    0.0000    0.0000    0.0000 C   0  0
  1  2  1  0
  2  3  2  0
  2  4  1  0
  4  5  1  0
  5  6  2  3
  6  7  1  0
  7  8  2  3
  8  9  1  0
  9 10  2  3
 10 11  1  0
 11 12  2  3
 12 13  1  0
 13 14  1  0
 13 15  2  3
 15 16  1  0
 16 17  2  3
 17 11  1  0
 17 18  1  0
  8 19  1  0
 19 20  2  3
 20  5  1  0
M  END
> <Name>
DISPERSE YELLOW 3

> <SMILES>
CC(=O)Nc2ccc(N=Nc1cc(C)ccc1O)cc2

> <Reference>
NTP/TR-222

> <Id>
2832-40-8

> <Actual Value>
NEG

> <Predicted Value>
0.001 NEG

> <Used>
1

> <Status>
Non-Carcinogen

> <CanonicalTautomer>
Yes

> <NumberOfTautomers>
5

> <iscarc>
0

$$$$
C.I. SOLVENT YELLOW 14
  SciTegic06161615512D

 19 21  0  0  0  0            999 V2000
    0.0000    0.0000    0.0000 O   0  0
    0.0000    0.0000    0.0000 C   0  0
    0.0000    0.0000    0.0000 C   0  0
    0.0000    0.0000    0.0000 C   0  0
    0.0000    0.0000    0.0000 C   0  0
    0.0000    0.0000    0.0000 C   0  0
    0.0000    0.0000    0.0000 C   0  0
    0.0000    0.0000    0.0000 C   0  0
    0.0000    0.0000    0.0000 C   0  0
    0.0000    0.0000    0.0000 C   0  0
    0.0000    0.0000    0.0000 C   0  0
    0.0000    0.0000    0.0000 N   0  0
    0.0000    0.0000    0.0000 N   0  0
    0.0000    0.0000    0.0000 C   0  0
    0.0000    0.0000    0.0000 C   0  0
    0.0000    0.0000    0.0000 C   0  0
    0.0000    0.0000    0.0000 C   0  0
    0.0000    0.0000    0.0000 C   0  0
    0.0000    0.0000    0.0000 C   0  0
  1  2  1  0
  2  3  2  3
  3  4  1  0
  4  5  2  3
  5  6  1  0
  6  7  2  3
  7  8  1  0
  8  9  2  3
  9 10  1  0
 10  5  1  0
 10 11  2  3
 11  2  1  0
 11 12  1  0
 12 13  2  3
 13 14  1  0
 14 15  2  3
 15 16  1  0
 16 17  2  3
 17 18  1  0
 18 19  2  3
 19 14  1  0
M  END
> <Name>
C.I. SOLVENT YELLOW 14

> <SMILES>
Oc2ccc1ccccc1c2N=Nc3ccccc3

> <Reference>
NTP/TR-226

> <Id>
842-07-9

> <Actual Value>
NEG

> <Predicted Value>
0.000 NEG

> <Used>
1

> <Status>
Non-Carcinogen

> <CanonicalTautomer>
Yes

> <NumberOfTautomers>
2

> <iscarc>
0

$$$$
1;1-DICHLOROETHANE
  SciTegic06161615512D

  4  3  0  0  0  0            999 V2000
    0.0000    0.0000    0.0000 C   0  0
    0.0000    0.0000    0.0000 C   0  0
    0.0000    0.0000    0.0000 Cl  0  0
    0.0000    0.0000    0.0000 Cl  0  0
  1  2  1  0
  2  3  1  0
  2  4  1  0
M  END
> <Name>
1;1-DICHLOROETHANE

> <SMILES>
CC(Cl)Cl

> <Reference>
NTP/TR-66

> <Id>
75-34-3

> <Actual Value>
NEG

> <Predicted Value>
0.285 NEG

> <Used>
1

> <Status>
Non-Carcinogen

> <iscarc>
0

$$$$
4;4'-OXYDIANILINE
  SciTegic06161615512D

 15 16  0  0  0  0            999 V2000
    0.0000    0.0000    0.0000 N   0  0
    0.0000    0.0000    0.0000 C   0  0
    0.0000    0.0000    0.0000 C   0  0
    0.0000    0.0000    0.0000 C   0  0
    0.0000    0.0000    0.0000 C   0  0
    0.0000    0.0000    0.0000 O   0  0
    0.0000    0.0000    0.0000 C   0  0
    0.0000    0.0000    0.0000 C   0  0
    0.0000    0.0000    0.0000 C   0  0
    0.0000    0.0000    0.0000 C   0  0
    0.0000    0.0000    0.0000 N   0  0
    0.0000    0.0000    0.0000 C   0  0
    0.0000    0.0000    0.0000 C   0  0
    0.0000    0.0000    0.0000 C   0  0
    0.0000    0.0000    0.0000 C   0  0
  1  2  1  0
  2  3  2  3
  3  4  1  0
  4  5  2  3
  5  6  1  0
  6  7  1  0
  7  8  2  3
  8  9  1  0
  9 10  2  3
 10 11  1  0
 10 12  1  0
 12 13  2  3
 13  7  1  0
  5 14  1  0
 14 15  2  3
 15  2  1  0
M  END
> <Name>
4;4'-OXYDIANILINE

> <SMILES>
Nc2ccc(Oc1ccc(N)cc1)cc2

> <Reference>
NTP/TR-205

> <Id>
101-80-4

> <Actual Value>
POS

> <Predicted Value>
0.998 POS

> <Used>
1

> <Status>
Carcinogen

> <iscarc>
1

$$$$
C.I. ACID RED 14
  SciTegic06161615512D

 31 34  0  0  0  0            999 V2000
    0.0000    0.0000    0.0000 O   0  0
    0.0000    0.0000    0.0000 C   0  0
    0.0000    0.0000    0.0000 C   0  0
    0.0000    0.0000    0.0000 N   0  0
    0.0000    0.0000    0.0000 N   0  0
    0.0000    0.0000    0.0000 C   0  0
    0.0000    0.0000    0.0000 C   0  0
    0.0000    0.0000    0.0000 C   0  0
    0.0000    0.0000    0.0000 C   0  0
    0.0000    0.0000    0.0000 C   0  0
    0.0000    0.0000    0.0000 C   0  0
    0.0000    0.0000    0.0000 C   0  0
    0.0000    0.0000    0.0000 C   0  0
    0.0000    0.0000    0.0000 C   0  0
    0.0000    0.0000    0.0000 C   0  0
    0.0000    0.0000    0.0000 S   0  0
    0.0000    0.0000    0.0000 O   0  0
    0.0000    0.0000    0.0000 O   0  0
    0.0000    0.0000    0.0000 O   0  0
    0.0000    0.0000    0.0000 C   0  0
    0.0000    0.0000    0.0000 C   0  0
    0.0000    0.0000    0.0000 C   0  0
    0.0000    0.0000    0.0000 C   0  0
    0.0000    0.0000    0.0000 C   0  0
    0.0000    0.0000    0.0000 C   0  0
    0.0000    0.0000    0.0000 C   0  0
    0.0000    0.0000    0.0000 C   0  0
    0.0000    0.0000    0.0000 S   0  0
    0.0000    0.0000    0.0000 O   0  0
    0.0000    0.0000    0.0000 O   0  0
    0.0000    0.0000    0.0000 O   0  0
  1  2  1  0
  2  3  2  3
  3  4  1  0
  4  5  2  3
  5  6  1  0
  6  7  2  3
  7  8  1  0
  8  9  2  3
  9 10  1  0
 10 11  2  3
 11 12  1  0
 12 13  2  3
 13 14  1  0
 14 15  2  3
 15  6  1  0
 15 10  1  0
  9 16  1  0
 16 17  1  0
 16 18  2  0
 16 19  2  0
  3 20  1  0
 20 21  2  3
 21 22  1  0
 22 23  2  3
 23 24  1  0
 24 25  2  3
 25 26  1  0
 26 27  2  3
 27  2  1  0
 27 22  1  0
 21 28  1  0
 28 29  1  0
 28 30  2  0
 28 31  2  0
M  END
> <Name>
C.I. ACID RED 14

> <SMILES>
Oc3c(N=Nc1ccc(c2ccccc12)S(O)(=O)=O)cc(c4ccccc34)S(O)(=O)=O

> <Reference>
NTP/TR-220

> <Id>
3567-69-9

> <Actual Value>
NEG

> <Predicted Value>
0.000 NEG

> <Used>
1

> <Status>
Non-Carcinogen

> <CanonicalTautomer>
Yes

> <NumberOfTautomers>
2

> <iscarc>
0

$$$$
N-PHENYL-2-NAPTHTHYLAMINE
  SciTegic06161615512D

 17 19  0  0  0  0            999 V2000
    0.0000    0.0000    0.0000 N   0  0
    0.0000    0.0000    0.0000 C   0  0
    0.0000    0.0000    0.0000 C   0  0
    0.0000    0.0000    0.0000 C   0  0
    0.0000    0.0000    0.0000 C   0  0
    0.0000    0.0000    0.0000 C   0  0
    0.0000    0.0000    0.0000 C   0  0
    0.0000    0.0000    0.0000 C   0  0
    0.0000    0.0000    0.0000 C   0  0
    0.0000    0.0000    0.0000 C   0  0
    0.0000    0.0000    0.0000 C   0  0
    0.0000    0.0000    0.0000 C   0  0
    0.0000    0.0000    0.0000 C   0  0
    0.0000    0.0000    0.0000 C   0  0
    0.0000    0.0000    0.0000 C   0  0
    0.0000    0.0000    0.0000 C   0  0
    0.0000    0.0000    0.0000 C   0  0
  1  2  1  0
  2  3  2  3
  3  4  1  0
  4  5  2  3
  5  6  1  0
  6  7  2  3
  7  2  1  0
  1  8  1  0
  8  9  2  3
  9 10  1  0
 10 11  2  3
 11 12  1  0
 12 13  2  3
 13 14  1  0
 14 15  2  3
 15 16  1  0
 16 11  1  0
 16 17  2  3
 17  8  1  0
M  END
> <Name>
N-PHENYL-2-NAPTHTHYLAMINE

> <SMILES>
N(c1ccccc1)c3ccc2ccccc2c3

> <Reference>
NTP/TR-333

> <Id>
135-88-6

> <Actual Value>
NEG

> <Predicted Value>
0.000 NEG

> <Used>
1

> <Status>
Non-Carcinogen

> <iscarc>
0

$$$$
N-(1-NAPHTHYL)ETHYLENEDIAMINE
  SciTegic06161615512D

 14 15  0  0  0  0            999 V2000
    0.0000    0.0000    0.0000 N   0  0
    0.0000    0.0000    0.0000 C   0  0
    0.0000    0.0000    0.0000 C   0  0
    0.0000    0.0000    0.0000 N   0  0
    0.0000    0.0000    0.0000 C   0  0
    0.0000    0.0000    0.0000 C   0  0
    0.0000    0.0000    0.0000 C   0  0
    0.0000    0.0000    0.0000 C   0  0
    0.0000    0.0000    0.0000 C   0  0
    0.0000    0.0000    0.0000 C   0  0
    0.0000    0.0000    0.0000 C   0  0
    0.0000    0.0000    0.0000 C   0  0
    0.0000    0.0000    0.0000 C   0  0
    0.0000    0.0000    0.0000 C   0  0
  1  2  1  0
  2  3  1  0
  3  4  1  0
  4  5  1  0
  5  6  2  3
  6  7  1  0
  7  8  2  3
  8  9  1  0
  9 10  2  3
 10 11  1  0
 11 12  2  3
 12 13  1  0
 13 14  2  3
 14  5  1  0
 14  9  1  0
M  END
> <Name>
N-(1-NAPHTHYL)ETHYLENEDIAMINE

> <SMILES>
NCCNc1cccc2ccccc12

> <Reference>
NTP/TR-168

> <Id>
1465-25-4

> <Actual Value>
NEG

> <Predicted Value>
0.000 NEG

> <Used>
1

> <Status>
Non-Carcinogen

> <iscarc>
0

$$$$
PHENAZOPYRIDINE.HCL
  SciTegic06161615512D

 16 17  0  0  0  0            999 V2000
    0.0000    0.0000    0.0000 N   0  0
    0.0000    0.0000    0.0000 C   0  0
    0.0000    0.0000    0.0000 C   0  0
    0.0000    0.0000    0.0000 C   0  0
    0.0000    0.0000    0.0000 C   0  0
    0.0000    0.0000    0.0000 N   0  0
    0.0000    0.0000    0.0000 N   0  0
    0.0000    0.0000    0.0000 C   0  0
    0.0000    0.0000    0.0000 C   0  0
    0.0000    0.0000    0.0000 C   0  0
    0.0000    0.0000    0.0000 C   0  0
    0.0000    0.0000    0.0000 C   0  0
    0.0000    0.0000    0.0000 C   0  0
    0.0000    0.0000    0.0000 C   0  0
    0.0000    0.0000    0.0000 N   0  0
    0.0000    0.0000    0.0000 N   0  0
  1  2  1  0
  2  3  2  3
  3  4  1  0
  4  5  2  3
  5  6  1  0
  6  7  2  3
  7  8  1  0
  8  9  2  3
  9 10  1  0
 10 11  2  3
 11 12  1  0
 12 13  2  3
 13  8  1  0
  5 14  1  0
 14 15  1  0
 14 16  2  3
 16  2  1  0
M  END
> <Name>
PHENAZOPYRIDINE.HCL

> <SMILES>
Nc2ccc(N=Nc1ccccc1)c(N)n2

> <Reference>
NTP/TR-99

> <Id>
136-40-3

> <Actual Value>
NEG

> <Predicted Value>
0.000 NEG

> <Used>
1

> <Status>
Non-Carcinogen

> <CanonicalTautomer>
Yes

> <NumberOfTautomers>
6

> <iscarc>
0

$$$$
TOLAZAMIDE
  SciTegic06161615512D

 21 22  0  0  0  0            999 V2000
    0.0000    0.0000    0.0000 C   0  0
    0.0000    0.0000    0.0000 C   0  0
    0.0000    0.0000    0.0000 C   0  0
    0.0000    0.0000    0.0000 C   0  0
    0.0000    0.0000    0.0000 C   0  0
    0.0000    0.0000    0.0000 C   0  0
    0.0000    0.0000    0.0000 C   0  0
    0.0000    0.0000    0.0000 S   0  0
    0.0000    0.0000    0.0000 O   0  0
    0.0000    0.0000    0.0000 O   0  0
    0.0000    0.0000    0.0000 N   0  0
    0.0000    0.0000    0.0000 C   0  0
    0.0000    0.0000    0.0000 O   0  0
    0.0000    0.0000    0.0000 N   0  0
    0.0000    0.0000    0.0000 N   0  0
    0.0000    0.0000    0.0000 C   0  0
    0.0000    0.0000    0.0000 C   0  0
    0.0000    0.0000    0.0000 C   0  0
    0.0000    0.0000    0.0000 C   0  0
    0.0000    0.0000    0.0000 C   0  0
    0.0000    0.0000    0.0000 C   0  0
  1  2  1  0
  2  3  2  3
  3  4  1  0
  4  5  2  3
  5  6  1  0
  6  7  2  3
  7  2  1  0
  5  8  1  0
  8  9  2  0
  8 10  2  0
  8 11  1  0
 11 12  1  0
 12 13  2  0
 12 14  1  0
 14 15  1  0
 15 16  1  0
 16 17  1  0
 17 18  1  0
 18 19  1  0
 19 20  1  0
 20 21  1  0
 21 15  1  0
M  END
> <Name>
TOLAZAMIDE

> <SMILES>
Cc1ccc(cc1)S(=O)(=O)NC(=O)NN2CCCCCC2

> <Reference>
NTP/TR-51

> <Id>
1156-19-0

> <Actual Value>
NEG

> <Predicted Value>
0.000 NEG

> <Used>
1

> <Status>
Non-Carcinogen

> <CanonicalTautomer>
Yes

> <NumberOfTautomers>
2

> <iscarc>
0

$$$$
4'-(CHLOROACETYL)-ACETANILIDE
  SciTegic06161615512D

 14 14  0  0  0  0            999 V2000
    0.0000    0.0000    0.0000 C   0  0
    0.0000    0.0000    0.0000 C   0  0
    0.0000    0.0000    0.0000 O   0  0
    0.0000    0.0000    0.0000 N   0  0
    0.0000    0.0000    0.0000 C   0  0
    0.0000    0.0000    0.0000 C   0  0
    0.0000    0.0000    0.0000 C   0  0
    0.0000    0.0000    0.0000 C   0  0
    0.0000    0.0000    0.0000 C   0  0
    0.0000    0.0000    0.0000 C   0  0
    0.0000    0.0000    0.0000 C   0  0
    0.0000    0.0000    0.0000 O   0  0
    0.0000    0.0000    0.0000 C   0  0
    0.0000    0.0000    0.0000 Cl  0  0
  1  2  1  0
  2  3  2  0
  2  4  1  0
  4  5  1  0
  5  6  2  3
  6  7  1  0
  7  8  2  3
  8  9  1  0
  9 10  2  3
 10  5  1  0
  8 11  1  0
 11 12  2  0
 11 13  1  0
 13 14  1  0
M  END
> <Name>
4'-(CHLOROACETYL)-ACETANILIDE

> <SMILES>
CC(=O)Nc1ccc(cc1)C(=O)CCl

> <Reference>
NTP/TR-177

> <Id>
140-49-8

> <Actual Value>
NEG

> <Predicted Value>
0.025 NEG

> <Used>
1

> <Status>
Non-Carcinogen

> <CanonicalTautomer>
Yes

> <NumberOfTautomers>
3

> <iscarc>
0

$$$$
PHENOXYBENZAMINE.HCL
  SciTegic06161615512D

 21 22  0  0  0  0            999 V2000
    0.0000    0.0000    0.0000 C   0  0
    0.0000    0.0000    0.0000 C   0  0
    0.0000    0.0000    0.0000 C   0  0
    0.0000    0.0000    0.0000 O   0  0
    0.0000    0.0000    0.0000 C   0  0
    0.0000    0.0000    0.0000 C   0  0
    0.0000    0.0000    0.0000 C   0  0
    0.0000    0.0000    0.0000 C   0  0
    0.0000    0.0000    0.0000 C   0  0
    0.0000    0.0000    0.0000 C   0  0
    0.0000    0.0000    0.0000 N   0  0
    0.0000    0.0000    0.0000 C   0  0
    0.0000    0.0000    0.0000 C   0  0
    0.0000    0.0000    0.0000 Cl  0  0
    0.0000    0.0000    0.0000 C   0  0
    0.0000    0.0000    0.0000 C   0  0
    0.0000    0.0000    0.0000 C   0  0
    0.0000    0.0000    0.0000 C   0  0
    0.0000    0.0000    0.0000 C   0  0
    0.0000    0.0000    0.0000 C   0  0
    0.0000    0.0000    0.0000 C   0  0
  1  2  1  0
  2  3  1  0
  3  4  1  0
  4  5  1  0
  5  6  2  3
  6  7  1  0
  7  8  2  3
  8  9  1  0
  9 10  2  3
 10  5  1  0
  2 11  1  0
 11 12  1  0
 12 13  1  0
 13 14  1  0
 11 15  1  0
 15 16  1  0
 16 17  2  3
 17 18  1  0
 18 19  2  3
 19 20  1  0
 20 21  2  3
 21 16  1  0
M  END
> <Name>
PHENOXYBENZAMINE.HCL

> <SMILES>
CC(COc1ccccc1)N(CCCl)Cc2ccccc2

> <Reference>
NTP/TR-72

> <Id>
63-92-3

> <Actual Value>
POS

> <Predicted Value>
0.999 POS

> <Used>
1

> <Status>
Carcinogen

> <iscarc>
1

$$$$
2;4-DICHLOROPHENOL
  SciTegic06161615512D

  9  9  0  0  0  0            999 V2000
    0.0000    0.0000    0.0000 O   0  0
    0.0000    0.0000    0.0000 C   0  0
    0.0000    0.0000    0.0000 C   0  0
    0.0000    0.0000    0.0000 C   0  0
    0.0000    0.0000    0.0000 C   0  0
    0.0000    0.0000    0.0000 Cl  0  0
    0.0000    0.0000    0.0000 C   0  0
    0.0000    0.0000    0.0000 C   0  0
    0.0000    0.0000    0.0000 Cl  0  0
  1  2  1  0
  2  3  2  3
  3  4  1  0
  4  5  2  3
  5  6  1  0
  5  7  1  0
  7  8  2  3
  8  2  1  0
  8  9  1  0
M  END
> <Name>
2;4-DICHLOROPHENOL

> <SMILES>
Oc1ccc(Cl)cc1Cl

> <Reference>
NTP/TR-353

> <Id>
120-83-2

> <Actual Value>
NEG

> <Predicted Value>
0.000 NEG

> <Used>
1

> <Status>
Non-Carcinogen

> <iscarc>
0

$$$$
METHOXYCHLOR
  SciTegic06161615512D

 21 22  0  0  0  0            999 V2000
    0.0000    0.0000    0.0000 C   0  0
    0.0000    0.0000    0.0000 O   0  0
    0.0000    0.0000    0.0000 C   0  0
    0.0000    0.0000    0.0000 C   0  0
    0.0000    0.0000    0.0000 C   0  0
    0.0000    0.0000    0.0000 C   0  0
    0.0000    0.0000    0.0000 C   0  0
    0.0000    0.0000    0.0000 C   0  0
    0.0000    0.0000    0.0000 C   0  0
    0.0000    0.0000    0.0000 C   0  0
    0.0000    0.0000    0.0000 C   0  0
    0.0000    0.0000    0.0000 C   0  0
    0.0000    0.0000    0.0000 C   0  0
    0.0000    0.0000    0.0000 O   0  0
    0.0000    0.0000    0.0000 C   0  0
    0.0000    0.0000    0.0000 C   0  0
    0.0000    0.0000    0.0000 C   0  0
    0.0000    0.0000    0.0000 C   0  0
    0.0000    0.0000    0.0000 Cl  0  0
    0.0000    0.0000    0.0000 Cl  0  0
    0.0000    0.0000    0.0000 Cl  0  0
  1  2  1  0
  2  3  1  0
  3  4  2  3
  4  5  1  0
  5  6  2  3
  6  7  1  0
  7  8  2  3
  8  3  1  0
  6  9  1  0
  9 10  1  0
 10 11  2  3
 11 12  1  0
 12 13  2  3
 13 14  1  0
 14 15  1  0
 13 16  1  0
 16 17  2  3
 17 10  1  0
  9 18  1  0
 18 19  1  0
 18 20  1  0
 18 21  1  0
M  END
> <Name>
METHOXYCHLOR

> <SMILES>
COc1ccc(cc1)C(c2ccc(OC)cc2)C(Cl)(Cl)Cl

> <Reference>
NTP/TR-35

> <Id>
72-43-5

> <Actual Value>
NEG

> <Predicted Value>
0.000 NEG

> <Used>
1

> <Status>
Non-Carcinogen

> <iscarc>
0

$$$$
1;2-DICHLOROETHANE
  SciTegic06161615512D

  4  3  0  0  0  0            999 V2000
    0.0000    0.0000    0.0000 Cl  0  0
    0.0000    0.0000    0.0000 C   0  0
    0.0000    0.0000    0.0000 C   0  0
    0.0000    0.0000    0.0000 Cl  0  0
  1  2  1  0
  2  3  1  0
  3  4  1  0
M  END
> <Name>
1;2-DICHLOROETHANE

> <SMILES>
ClCCCl

> <Reference>
NTP/TR-55

> <Id>
107-06-2

> <Actual Value>
POS

> <Predicted Value>
1.000 POS

> <Used>
1

> <Status>
Carcinogen

> <iscarc>
1

$$$$
1H-BENZOTRIAZOLE
  SciTegic06161615512D

  9 10  0  0  0  0            999 V2000
    0.0000    0.0000    0.0000 C   0  0
    0.0000    0.0000    0.0000 C   0  0
    0.0000    0.0000    0.0000 C   0  0
    0.0000    0.0000    0.0000 C   0  0
    0.0000    0.0000    0.0000 N   0  0
    0.0000    0.0000    0.0000 N   0  0
    0.0000    0.0000    0.0000 N   0  0
    0.0000    0.0000    0.0000 C   0  0
    0.0000    0.0000    0.0000 C   0  0
  1  2  2  3
  2  3  1  0
  3  4  2  3
  4  5  1  0
  5  6  2  3
  6  7  1  0
  7  8  1  0
  8  4  1  0
  8  9  2  3
  9  1  1  0
M  END
> <Name>
1H-BENZOTRIAZOLE

> <SMILES>
c2ccc1[nH]nnc1c2

> <Reference>
NTP/TR-88

> <Id>
95-14-7

> <Actual Value>
NEG

> <Predicted Value>
0.000 NEG

> <Used>
1

> <Status>
Non-Carcinogen

> <CanonicalTautomer>
Yes

> <NumberOfTautomers>
3

> <iscarc>
0

$$$$
2;6-dICHLORO-p-PNENYLENEDIAMINE
  SciTegic06161615512D

 10 10  0  0  0  0            999 V2000
    0.0000    0.0000    0.0000 N   0  0
    0.0000    0.0000    0.0000 C   0  0
    0.0000    0.0000    0.0000 C   0  0
    0.0000    0.0000    0.0000 C   0  0
    0.0000    0.0000    0.0000 Cl  0  0
    0.0000    0.0000    0.0000 C   0  0
    0.0000    0.0000    0.0000 N   0  0
    0.0000    0.0000    0.0000 C   0  0
    0.0000    0.0000    0.0000 Cl  0  0
    0.0000    0.0000    0.0000 C   0  0
  1  2  1  0
  2  3  2  3
  3  4  1  0
  4  5  1  0
  4  6  2  3
  6  7  1  0
  6  8  1  0
  8  9  1  0
  8 10  2  3
 10  2  1  0
M  END
> <Name>
2;6-dICHLORO-p-PNENYLENEDIAMINE

> <SMILES>
Nc1cc(Cl)c(N)c(Cl)c1

> <Reference>
NTP/TR-219

> <Id>
609-20-1

> <Actual Value>
POS

> <Predicted Value>
0.589 IND

> <Used>
1

> <Status>
Carcinogen

> <iscarc>
1

$$$$
PHTHALIC ANHYDRIDE
  SciTegic06161615512D

 11 12  0  0  0  0            999 V2000
    0.0000    0.0000    0.0000 O   0  0
    0.0000    0.0000    0.0000 C   0  0
    0.0000    0.0000    0.0000 O   0  0
    0.0000    0.0000    0.0000 C   0  0
    0.0000    0.0000    0.0000 O   0  0
    0.0000    0.0000    0.0000 C   0  0
    0.0000    0.0000    0.0000 C   0  0
    0.0000    0.0000    0.0000 C   0  0
    0.0000    0.0000    0.0000 C   0  0
    0.0000    0.0000    0.0000 C   0  0
    0.0000    0.0000    0.0000 C   0  0
  1  2  2  0
  2  3  1  0
  3  4  1  0
  4  5  2  0
  4  6  1  0
  6  7  2  3
  7  8  1  0
  8  9  2  3
  9 10  1  0
 10 11  2  3
 11  2  1  0
 11  6  1  0
M  END
> <Name>
PHTHALIC ANHYDRIDE

> <SMILES>
O=C1OC(=O)c2ccccc12

> <Reference>
NTP/TR-159

> <Id>
85-44-9

> <Actual Value>
NEG

> <Predicted Value>
0.001 NEG

> <Used>
1

> <Status>
Non-Carcinogen

> <iscarc>
0

$$$$
2-CHLORO-p-PHENYLENEDIAMINE
  SciTegic06161615512D

  9  9  0  0  0  0            999 V2000
    0.0000    0.0000    0.0000 N   0  0
    0.0000    0.0000    0.0000 C   0  0
    0.0000    0.0000    0.0000 C   0  0
    0.0000    0.0000    0.0000 C   0  0
    0.0000    0.0000    0.0000 C   0  0
    0.0000    0.0000    0.0000 N   0  0
    0.0000    0.0000    0.0000 C   0  0
    0.0000    0.0000    0.0000 Cl  0  0
    0.0000    0.0000    0.0000 C   0  0
  1  2  1  0
  2  3  2  3
  3  4  1  0
  4  5  2  3
  5  6  1  0
  5  7  1  0
  7  8  1  0
  7  9  2  3
  9  2  1  0
M  END
> <Name>
2-CHLORO-p-PHENYLENEDIAMINE

> <SMILES>
Nc1ccc(N)c(Cl)c1

> <Reference>
NTP/TR-113

> <Id>
61702-44-1

> <Actual Value>
NEG

> <Predicted Value>
0.000 NEG

> <Used>
1

> <Status>
Non-Carcinogen

> <iscarc>
0

$$$$
BUTYL BENZYL PHTHALATE
  SciTegic06161615512D

 23 24  0  0  0  0            999 V2000
    0.0000    0.0000    0.0000 C   0  0
    0.0000    0.0000    0.0000 C   0  0
    0.0000    0.0000    0.0000 C   0  0
    0.0000    0.0000    0.0000 C   0  0
    0.0000    0.0000    0.0000 O   0  0
    0.0000    0.0000    0.0000 C   0  0
    0.0000    0.0000    0.0000 O   0  0
    0.0000    0.0000    0.0000 C   0  0
    0.0000    0.0000    0.0000 C   0  0
    0.0000    0.0000    0.0000 C   0  0
    0.0000    0.0000    0.0000 C   0  0
    0.0000    0.0000    0.0000 C   0  0
    0.0000    0.0000    0.0000 C   0  0
    0.0000    0.0000    0.0000 C   0  0
    0.0000    0.0000    0.0000 O   0  0
    0.0000    0.0000    0.0000 O   0  0
    0.0000    0.0000    0.0000 C   0  0
    0.0000    0.0000    0.0000 C   0  0
    0.0000    0.0000    0.0000 C   0  0
    0.0000    0.0000    0.0000 C   0  0
    0.0000    0.0000    0.0000 C   0  0
    0.0000    0.0000    0.0000 C   0  0
    0.0000    0.0000    0.0000 C   0  0
  1  2  1  0
  2  3  1  0
  3  4  1  0
  4  5  1  0
  5  6  1  0
  6  7  2  0
  6  8  1  0
  8  9  2  3
  9 10  1  0
 10 11  2  3
 11 12  1  0
 12 13  2  3
 13  8  1  0
 13 14  1  0
 14 15  2  0
 14 16  1  0
 16 17  1  0
 17 18  1  0
 18 19  2  3
 19 20  1  0
 20 21  2  3
 21 22  1  0
 22 23  2  3
 23 18  1  0
M  END
> <Name>
BUTYL BENZYL PHTHALATE

> <SMILES>
CCCCOC(=O)c1ccccc1C(=O)OCc2ccccc2

> <Reference>
NTP/TR-213

> <Id>
85-68-7

> <Actual Value>
NEG

> <Predicted Value>
0.004 NEG

> <Used>
1

> <Status>
Non-Carcinogen

> <iscarc>
0

$$$$
4-CHLORO-m-PHENYLENEDIAMINE
  SciTegic06161615512D

  9  9  0  0  0  0            999 V2000
    0.0000    0.0000    0.0000 N   0  0
    0.0000    0.0000    0.0000 C   0  0
    0.0000    0.0000    0.0000 C   0  0
    0.0000    0.0000    0.0000 C   0  0
    0.0000    0.0000    0.0000 C   0  0
    0.0000    0.0000    0.0000 Cl  0  0
    0.0000    0.0000    0.0000 C   0  0
    0.0000    0.0000    0.0000 N   0  0
    0.0000    0.0000    0.0000 C   0  0
  1  2  1  0
  2  3  2  3
  3  4  1  0
  4  5  2  3
  5  6  1  0
  5  7  1  0
  7  8  1  0
  7  9  2  3
  9  2  1  0
M  END
> <Name>
4-CHLORO-m-PHENYLENEDIAMINE

> <SMILES>
Nc1ccc(Cl)c(N)c1

> <Reference>
NTP/TR-85

> <Id>
5131-60-2

> <Actual Value>
NEG

> <Predicted Value>
0.000 NEG

> <Used>
1

> <Status>
Non-Carcinogen

> <iscarc>
0

$$$$
ETHIONAMIDE
  SciTegic06161615512D

 11 11  0  0  0  0            999 V2000
    0.0000    0.0000    0.0000 C   0  0
    0.0000    0.0000    0.0000 C   0  0
    0.0000    0.0000    0.0000 C   0  0
    0.0000    0.0000    0.0000 C   0  0
    0.0000    0.0000    0.0000 C   0  0
    0.0000    0.0000    0.0000 C   0  0
    0.0000    0.0000    0.0000 C   0  0
    0.0000    0.0000    0.0000 N   0  0
    0.0000    0.0000    0.0000 C   0  0
    0.0000    0.0000    0.0000 N   0  0
    0.0000    0.0000    0.0000 S   0  0
  1  2  1  0
  2  3  1  0
  3  4  2  3
  4  5  1  0
  5  6  2  3
  6  7  1  0
  7  8  2  3
  8  3  1  0
  5  9  1  0
  9 10  1  0
  9 11  2  0
M  END
> <Name>
ETHIONAMIDE

> <SMILES>
CCc1cc(ccn1)C(N)=S

> <Reference>
NTP/TR-46

> <Id>
536-33-4

> <Actual Value>
NEG

> <Predicted Value>
0.002 NEG

> <Used>
1

> <Status>
Non-Carcinogen

> <CanonicalTautomer>
Yes

> <NumberOfTautomers>
2

> <iscarc>
0

$$$$
BENZENE
  SciTegic06161615512D

  6  6  0  0  0  0            999 V2000
    0.0000    0.0000    0.0000 C   0  0
    0.0000    0.0000    0.0000 C   0  0
    0.0000    0.0000    0.0000 C   0  0
    0.0000    0.0000    0.0000 C   0  0
    0.0000    0.0000    0.0000 C   0  0
    0.0000    0.0000    0.0000 C   0  0
  1  2  2  3
  2  3  1  0
  3  4  2  3
  4  5  1  0
  5  6  2  3
  6  1  1  0
M  END
> <Name>
BENZENE

> <SMILES>
c1ccccc1

> <Reference>
NTP/TR-289

> <Id>
71-43-2

> <Actual Value>
POS

> <Predicted Value>
1.000 POS

> <Used>
1

> <Status>
Carcinogen

> <iscarc>
1

$$$$
5;5-DIPHENYLHYDANTOIN
  SciTegic06161615512D

 19 21  0  0  0  0            999 V2000
    0.0000    0.0000    0.0000 O   0  0
    0.0000    0.0000    0.0000 C   0  0
    0.0000    0.0000    0.0000 N   0  0
    0.0000    0.0000    0.0000 C   0  0
    0.0000    0.0000    0.0000 O   0  0
    0.0000    0.0000    0.0000 C   0  0
    0.0000    0.0000    0.0000 N   0  0
    0.0000    0.0000    0.0000 C   0  0
    0.0000    0.0000    0.0000 C   0  0
    0.0000    0.0000    0.0000 C   0  0
    0.0000    0.0000    0.0000 C   0  0
    0.0000    0.0000    0.0000 C   0  0
    0.0000    0.0000    0.0000 C   0  0
    0.0000    0.0000    0.0000 C   0  0
    0.0000    0.0000    0.0000 C   0  0
    0.0000    0.0000    0.0000 C   0  0
    0.0000    0.0000    0.0000 C   0  0
    0.0000    0.0000    0.0000 C   0  0
    0.0000    0.0000    0.0000 C   0  0
  1  2  2  0
  2  3  1  0
  3  4  1  0
  4  5  2  0
  4  6  1  0
  6  7  1  0
  7  2  1  0
  6  8  1  0
  8  9  2  3
  9 10  1  0
 10 11  2  3
 11 12  1  0
 12 13  2  3
 13  8  1  0
  6 14  1  0
 14 15  2  3
 15 16  1  0
 16 17  2  3
 17 18  1  0
 18 19  2  3
 19 14  1  0
M  END
> <Name>
5;5-DIPHENYLHYDANTOIN

> <SMILES>
O=C1NC(=O)C(N1)(c2ccccc2)c3ccccc3

> <Reference>
NTP/TR-404

> <Id>
57-41-0

> <Actual Value>
NEG

> <Predicted Value>
0.000 NEG

> <Used>
1

> <Status>
Non-Carcinogen

> <CanonicalTautomer>
Yes

> <NumberOfTautomers>
3

> <iscarc>
0

$$$$
DICHLOROMETHANE
  SciTegic06161615512D

  3  2  0  0  0  0            999 V2000
    0.0000    0.0000    0.0000 Cl  0  0
    0.0000    0.0000    0.0000 C   0  0
    0.0000    0.0000    0.0000 Cl  0  0
  1  2  1  0
  2  3  1  0
M  END
> <Name>
DICHLOROMETHANE

> <SMILES>
ClCCl

> <Reference>
NTP/TR-306

> <Id>
75-09-2

> <Actual Value>
POS

> <Predicted Value>
1.000 POS

> <Used>
1

> <Status>
Carcinogen

> <iscarc>
1

$$$$
3;3'-DIMETHOXYBENZIDINE-4;4'-DIISOCYANATE
  SciTegic06161615512D

 22 23  0  0  0  0            999 V2000
    0.0000    0.0000    0.0000 C   0  0
    0.0000    0.0000    0.0000 O   0  0
    0.0000    0.0000    0.0000 C   0  0
    0.0000    0.0000    0.0000 C   0  0
    0.0000    0.0000    0.0000 C   0  0
    0.0000    0.0000    0.0000 C   0  0
    0.0000    0.0000    0.0000 C   0  0
    0.0000    0.0000    0.0000 C   0  0
    0.0000    0.0000    0.0000 N   0  0
    0.0000    0.0000    0.0000 C   0  0
    0.0000    0.0000    0.0000 O   0  0
    0.0000    0.0000    0.0000 C   0  0
    0.0000    0.0000    0.0000 C   0  0
    0.0000    0.0000    0.0000 C   0  0
    0.0000    0.0000    0.0000 C   0  0
    0.0000    0.0000    0.0000 N   0  0
    0.0000    0.0000    0.0000 C   0  0
    0.0000    0.0000    0.0000 O   0  0
    0.0000    0.0000    0.0000 C   0  0
    0.0000    0.0000    0.0000 O   0  0
    0.0000    0.0000    0.0000 C   0  0
    0.0000    0.0000    0.0000 C   0  0
  1  2  1  0
  2  3  1  0
  3  4  2  3
  4  5  1  0
  5  6  2  3
  6  7  1  0
  7  8  2  3
  8  3  1  0
  8  9  1  0
  9 10  2  3
 10 11  2  0
  5 12  1  0
 12 13  2  3
 13 14  1  0
 14 15  2  3
 15 16  1  0
 16 17  2  3
 17 18  2  0
 15 19  1  0
 19 20  1  0
 20 21  1  0
 19 22  2  3
 22 12  1  0
M  END
> <Name>
3;3'-DIMETHOXYBENZIDINE-4;4'-DIISOCYANATE

> <SMILES>
COc1cc(ccc1N=C=O)c2ccc(N=C=O)c(OC)c2

> <Reference>
NTP/TR-128

> <Id>
91-93-0

> <Actual Value>
NEG

> <Predicted Value>
0.001 NEG

> <Used>
1

> <Status>
Non-Carcinogen

> <iscarc>
0

$$$$
3-CHLORO-P-TOLUIDINE
  SciTegic06161615512D

  9  9  0  0  0  0            999 V2000
    0.0000    0.0000    0.0000 C   0  0
    0.0000    0.0000    0.0000 C   0  0
    0.0000    0.0000    0.0000 C   0  0
    0.0000    0.0000    0.0000 C   0  0
    0.0000    0.0000    0.0000 C   0  0
    0.0000    0.0000    0.0000 N   0  0
    0.0000    0.0000    0.0000 C   0  0
    0.0000    0.0000    0.0000 C   0  0
    0.0000    0.0000    0.0000 Cl  0  0
  1  2  1  0
  2  3  2  3
  3  4  1  0
  4  5  2  3
  5  6  1  0
  5  7  1  0
  7  8  2  3
  8  2  1  0
  8  9  1  0
M  END
> <Name>
3-CHLORO-P-TOLUIDINE

> <SMILES>
Cc1ccc(N)cc1Cl

> <Reference>
NTP/TR-145

> <Id>
95-74-9

> <Actual Value>
NEG

> <Predicted Value>
0.812 POS

> <Used>
1

> <Status>
Non-Carcinogen

> <iscarc>
0

$$$$
2;5-TOLUENEDIAMINE
  SciTegic06161615512D

  9  9  0  0  0  0            999 V2000
    0.0000    0.0000    0.0000 C   0  0
    0.0000    0.0000    0.0000 C   0  0
    0.0000    0.0000    0.0000 C   0  0
    0.0000    0.0000    0.0000 C   0  0
    0.0000    0.0000    0.0000 N   0  0
    0.0000    0.0000    0.0000 C   0  0
    0.0000    0.0000    0.0000 C   0  0
    0.0000    0.0000    0.0000 C   0  0
    0.0000    0.0000    0.0000 N   0  0
  1  2  1  0
  2  3  2  3
  3  4  1  0
  4  5  1  0
  4  6  2  3
  6  7  1  0
  7  8  2  3
  8  2  1  0
  8  9  1  0
M  END
> <Name>
2;5-TOLUENEDIAMINE

> <SMILES>
Cc1cc(N)ccc1N

> <Reference>
NTP/TR-126

> <Id>
6369-59-1

> <Actual Value>
NEG

> <Predicted Value>
0.091 NEG

> <Used>
1

> <Status>
Non-Carcinogen

> <iscarc>
0

$$$$
2;4-DIAMINOTOLUENE
  SciTegic06161615512D

  9  9  0  0  0  0            999 V2000
    0.0000    0.0000    0.0000 C   0  0
    0.0000    0.0000    0.0000 C   0  0
    0.0000    0.0000    0.0000 C   0  0
    0.0000    0.0000    0.0000 C   0  0
    0.0000    0.0000    0.0000 C   0  0
    0.0000    0.0000    0.0000 N   0  0
    0.0000    0.0000    0.0000 C   0  0
    0.0000    0.0000    0.0000 C   0  0
    0.0000    0.0000    0.0000 N   0  0
  1  2  1  0
  2  3  2  3
  3  4  1  0
  4  5  2  3
  5  6  1  0
  5  7  1  0
  7  8  2  3
  8  2  1  0
  8  9  1  0
M  END
> <Name>
2;4-DIAMINOTOLUENE

> <SMILES>
Cc1ccc(N)cc1N

> <Reference>
NTP/TR-162

> <Id>
95-80-7

> <Actual Value>
NEG

> <Predicted Value>
0.098 NEG

> <Used>
1

> <Status>
Non-Carcinogen

> <iscarc>
0

$$$$
4-CHLORO-o-TOLUIDINE.HCL
  SciTegic06161615512D

  9  9  0  0  0  0            999 V2000
    0.0000    0.0000    0.0000 C   0  0
    0.0000    0.0000    0.0000 C   0  0
    0.0000    0.0000    0.0000 C   0  0
    0.0000    0.0000    0.0000 C   0  0
    0.0000    0.0000    0.0000 Cl  0  0
    0.0000    0.0000    0.0000 C   0  0
    0.0000    0.0000    0.0000 C   0  0
    0.0000    0.0000    0.0000 C   0  0
    0.0000    0.0000    0.0000 N   0  0
  1  2  1  0
  2  3  2  3
  3  4  1  0
  4  5  1  0
  4  6  2  3
  6  7  1  0
  7  8  2  3
  8  2  1  0
  8  9  1  0
M  END
> <Name>
4-CHLORO-o-TOLUIDINE.HCL

> <SMILES>
Cc1cc(Cl)ccc1N

> <Reference>
NTP/TR-165

> <Id>
3165-93-3

> <Actual Value>
POS

> <Predicted Value>
0.938 POS

> <Used>
1

> <Status>
Carcinogen

> <iscarc>
1

$$$$
5-CHLORO-O-TOLUIDINE
  SciTegic06161615512D

  9  9  0  0  0  0            999 V2000
    0.0000    0.0000    0.0000 C   0  0
    0.0000    0.0000    0.0000 C   0  0
    0.0000    0.0000    0.0000 C   0  0
    0.0000    0.0000    0.0000 C   0  0
    0.0000    0.0000    0.0000 C   0  0
    0.0000    0.0000    0.0000 Cl  0  0
    0.0000    0.0000    0.0000 C   0  0
    0.0000    0.0000    0.0000 C   0  0
    0.0000    0.0000    0.0000 N   0  0
  1  2  1  0
  2  3  2  3
  3  4  1  0
  4  5  2  3
  5  6  1  0
  5  7  1  0
  7  8  2  3
  8  2  1  0
  8  9  1  0
M  END
> <Name>
5-CHLORO-O-TOLUIDINE

> <SMILES>
Cc1ccc(Cl)cc1N

> <Reference>
NTP/TR-187

> <Id>
95-79-4

> <Actual Value>
POS

> <Predicted Value>
0.957 POS

> <Used>
1

> <Status>
Carcinogen

> <iscarc>
1

$$$$
PROBENECID
  SciTegic06161615512D

 19 19  0  0  0  0            999 V2000
    0.0000    0.0000    0.0000 C   0  0
    0.0000    0.0000    0.0000 C   0  0
    0.0000    0.0000    0.0000 C   0  0
    0.0000    0.0000    0.0000 N   0  0
    0.0000    0.0000    0.0000 C   0  0
    0.0000    0.0000    0.0000 C   0  0
    0.0000    0.0000    0.0000 C   0  0
    0.0000    0.0000    0.0000 S   0  0
    0.0000    0.0000    0.0000 O   0  0
    0.0000    0.0000    0.0000 O   0  0
    0.0000    0.0000    0.0000 C   0  0
    0.0000    0.0000    0.0000 C   0  0
    0.0000    0.0000    0.0000 C   0  0
    0.0000    0.0000    0.0000 C   0  0
    0.0000    0.0000    0.0000 C   0  0
    0.0000    0.0000    0.0000 C   0  0
    0.0000    0.0000    0.0000 C   0  0
    0.0000    0.0000    0.0000 O   0  0
    0.0000    0.0000    0.0000 O   0  0
  1  2  1  0
  2  3  1  0
  3  4  1  0
  4  5  1  0
  5  6  1  0
  6  7  1  0
  4  8  1  0
  8  9  2  0
  8 10  2  0
  8 11  1  0
 11 12  2  3
 12 13  1  0
 13 14  2  3
 14 15  1  0
 15 16  2  3
 16 11  1  0
 14 17  1  0
 17 18  1  0
 17 19  2  0
M  END
> <Name>
PROBENECID

> <SMILES>
CCCN(CCC)S(=O)(=O)c1ccc(cc1)C(O)=O

> <Reference>
NTP/TR-395

> <Id>
57-66-9

> <Actual Value>
NEG

> <Predicted Value>
0.000 NEG

> <Used>
1

> <Status>
Non-Carcinogen

> <iscarc>
0

$$$$
2-(CHLOROMETHYL)PYRIDINE.HCL
  SciTegic06161615512D

  8  8  0  0  0  0            999 V2000
    0.0000    0.0000    0.0000 Cl  0  0
    0.0000    0.0000    0.0000 C   0  0
    0.0000    0.0000    0.0000 C   0  0
    0.0000    0.0000    0.0000 C   0  0
    0.0000    0.0000    0.0000 C   0  0
    0.0000    0.0000    0.0000 C   0  0
    0.0000    0.0000    0.0000 C   0  0
    0.0000    0.0000    0.0000 N   0  0
  1  2  1  0
  2  3  1  0
  3  4  2  3
  4  5  1  0
  5  6  2  3
  6  7  1  0
  7  8  2  3
  8  3  1  0
M  END
> <Name>
2-(CHLOROMETHYL)PYRIDINE.HCL

> <SMILES>
ClCc1ccccn1

> <Reference>
NTP/TR-178

> <Id>
6959-47-3

> <Actual Value>
NEG

> <Predicted Value>
0.000 NEG

> <Used>
1

> <Status>
Non-Carcinogen

> <iscarc>
0

$$$$
2;4-DIMETHOXYANILINE.HCL
  SciTegic06161615512D

 11 11  0  0  0  0            999 V2000
    0.0000    0.0000    0.0000 C   0  0
    0.0000    0.0000    0.0000 O   0  0
    0.0000    0.0000    0.0000 C   0  0
    0.0000    0.0000    0.0000 C   0  0
    0.0000    0.0000    0.0000 C   0  0
    0.0000    0.0000    0.0000 C   0  0
    0.0000    0.0000    0.0000 N   0  0
    0.0000    0.0000    0.0000 C   0  0
    0.0000    0.0000    0.0000 O   0  0
    0.0000    0.0000    0.0000 C   0  0
    0.0000    0.0000    0.0000 C   0  0
  1  2  1  0
  2  3  1  0
  3  4  2  3
  4  5  1  0
  5  6  2  3
  6  7  1  0
  6  8  1  0
  8  9  1  0
  9 10  1  0
  8 11  2  3
 11  3  1  0
M  END
> <Name>
2;4-DIMETHOXYANILINE.HCL

> <SMILES>
COc1ccc(N)c(OC)c1

> <Reference>
NTP/TR-171

> <Id>
54150-69-5

> <Actual Value>
NEG

> <Predicted Value>
0.028 NEG

> <Used>
1

> <Status>
Non-Carcinogen

> <iscarc>
0

$$$$
IDOFORM
  SciTegic06161615512D

  4  3  0  0  0  0            999 V2000
    0.0000    0.0000    0.0000 I   0  0
    0.0000    0.0000    0.0000 C   0  0
    0.0000    0.0000    0.0000 I   0  0
    0.0000    0.0000    0.0000 I   0  0
  1  2  1  0
  2  3  1  0
  2  4  1  0
M  END
> <Name>
IDOFORM

> <SMILES>
IC(I)I

> <Reference>
NTP/TR-110

> <Id>
75-47-8

> <Actual Value>
NEG

> <Predicted Value>
0.000 NEG

> <Used>
1

> <Status>
Non-Carcinogen

> <iscarc>
0

$$$$
PHTHALAMIDE
  SciTegic06161615512D

 12 12  0  0  0  0            999 V2000
    0.0000    0.0000    0.0000 N   0  0
    0.0000    0.0000    0.0000 C   0  0
    0.0000    0.0000    0.0000 O   0  0
    0.0000    0.0000    0.0000 C   0  0
    0.0000    0.0000    0.0000 C   0  0
    0.0000    0.0000    0.0000 C   0  0
    0.0000    0.0000    0.0000 C   0  0
    0.0000    0.0000    0.0000 C   0  0
    0.0000    0.0000    0.0000 C   0  0
    0.0000    0.0000    0.0000 C   0  0
    0.0000    0.0000    0.0000 N   0  0
    0.0000    0.0000    0.0000 O   0  0
  1  2  1  0
  2  3  2  0
  2  4  1  0
  4  5  2  3
  5  6  1  0
  6  7  2  3
  7  8  1  0
  8  9  2  3
  9  4  1  0
  9 10  1  0
 10 11  1  0
 10 12  2  0
M  END
> <Name>
PHTHALAMIDE

> <SMILES>
NC(=O)c1ccccc1C(N)=O

> <Reference>
NTP/TR-161

> <Id>
88-96-0

> <Actual Value>
NEG

> <Predicted Value>
0.000 NEG

> <Used>
1

> <Status>
Non-Carcinogen

> <iscarc>
0

$$$$
8-HYDROXYQUINOLINE
  SciTegic06161615512D

 11 12  0  0  0  0            999 V2000
    0.0000    0.0000    0.0000 O   0  0
    0.0000    0.0000    0.0000 C   0  0
    0.0000    0.0000    0.0000 C   0  0
    0.0000    0.0000    0.0000 C   0  0
    0.0000    0.0000    0.0000 C   0  0
    0.0000    0.0000    0.0000 C   0  0
    0.0000    0.0000    0.0000 C   0  0
    0.0000    0.0000    0.0000 C   0  0
    0.0000    0.0000    0.0000 C   0  0
    0.0000    0.0000    0.0000 N   0  0
    0.0000    0.0000    0.0000 C   0  0
  1  2  1  0
  2  3  2  3
  3  4  1  0
  4  5  2  3
  5  6  1  0
  6  7  2  3
  7  8  1  0
  8  9  2  3
  9 10  1  0
 10 11  2  3
 11  2  1  0
 11  6  1  0
M  END
> <Name>
8-HYDROXYQUINOLINE

> <SMILES>
Oc1cccc2cccnc12

> <Reference>
NTP/TR-276

> <Id>
148-24-3

> <Actual Value>
NEG

> <Predicted Value>
0.001 NEG

> <Used>
1

> <Status>
Non-Carcinogen

> <iscarc>
0

$$$$
p-CRESIDINE
  SciTegic06161615512D

 10 10  0  0  0  0            999 V2000
    0.0000    0.0000    0.0000 C   0  0
    0.0000    0.0000    0.0000 O   0  0
    0.0000    0.0000    0.0000 C   0  0
    0.0000    0.0000    0.0000 C   0  0
    0.0000    0.0000    0.0000 C   0  0
    0.0000    0.0000    0.0000 C   0  0
    0.0000    0.0000    0.0000 C   0  0
    0.0000    0.0000    0.0000 C   0  0
    0.0000    0.0000    0.0000 C   0  0
    0.0000    0.0000    0.0000 N   0  0
  1  2  1  0
  2  3  1  0
  3  4  2  3
  4  5  1  0
  5  6  2  3
  6  7  1  0
  6  8  1  0
  8  9  2  3
  9  3  1  0
  9 10  1  0
M  END
> <Name>
p-CRESIDINE

> <SMILES>
COc1ccc(C)cc1N

> <Reference>
NTP/TR-142

> <Id>
120-71-8

> <Actual Value>
POS

> <Predicted Value>
0.631 IND

> <Used>
1

> <Status>
Carcinogen

> <iscarc>
1

$$$$
MONOCHLOROACETIC ACID
  SciTegic06161615512D

  5  4  0  0  0  0            999 V2000
    0.0000    0.0000    0.0000 O   0  0
    0.0000    0.0000    0.0000 C   0  0
    0.0000    0.0000    0.0000 O   0  0
    0.0000    0.0000    0.0000 C   0  0
    0.0000    0.0000    0.0000 Cl  0  0
  1  2  1  0
  2  3  2  0
  2  4  1  0
  4  5  1  0
M  END
> <Name>
MONOCHLOROACETIC ACID

> <SMILES>
OC(=O)CCl

> <Reference>
NTP/TR-396

> <Id>
79-11-8

> <Actual Value>
NEG

> <Predicted Value>
0.003 NEG

> <Used>
1

> <Status>
Non-Carcinogen

> <iscarc>
0

$$$$
4;4'-THIODIANILINE
  SciTegic06161615512D

 15 16  0  0  0  0            999 V2000
    0.0000    0.0000    0.0000 N   0  0
    0.0000    0.0000    0.0000 C   0  0
    0.0000    0.0000    0.0000 C   0  0
    0.0000    0.0000    0.0000 C   0  0
    0.0000    0.0000    0.0000 C   0  0
    0.0000    0.0000    0.0000 S   0  0
    0.0000    0.0000    0.0000 C   0  0
    0.0000    0.0000    0.0000 C   0  0
    0.0000    0.0000    0.0000 C   0  0
    0.0000    0.0000    0.0000 C   0  0
    0.0000    0.0000    0.0000 N   0  0
    0.0000    0.0000    0.0000 C   0  0
    0.0000    0.0000    0.0000 C   0  0
    0.0000    0.0000    0.0000 C   0  0
    0.0000    0.0000    0.0000 C   0  0
  1  2  1  0
  2  3  2  3
  3  4  1  0
  4  5  2  3
  5  6  1  0
  6  7  1  0
  7  8  2  3
  8  9  1  0
  9 10  2  3
 10 11  1  0
 10 12  1  0
 12 13  2  3
 13  7  1  0
  5 14  1  0
 14 15  2  3
 15  2  1  0
M  END
> <Name>
4;4'-THIODIANILINE

> <SMILES>
Nc2ccc(Sc1ccc(N)cc1)cc2

> <Reference>
NTP/TR-47

> <Id>
139-65-1

> <Actual Value>
POS

> <Predicted Value>
1.000 POS

> <Used>
1

> <Status>
Carcinogen

> <iscarc>
1

$$$$
DICHLORVOS
  SciTegic06161615512D

 11 10  0  0  0  0            999 V2000
    0.0000    0.0000    0.0000 C   0  0
    0.0000    0.0000    0.0000 O   0  0
    0.0000    0.0000    0.0000 P   0  0
    0.0000    0.0000    0.0000 O   0  0
    0.0000    0.0000    0.0000 O   0  0
    0.0000    0.0000    0.0000 C   0  0
    0.0000    0.0000    0.0000 O   0  0
    0.0000    0.0000    0.0000 C   0  0
    0.0000    0.0000    0.0000 C   0  0
    0.0000    0.0000    0.0000 Cl  0  0
    0.0000    0.0000    0.0000 Cl  0  0
  1  2  1  0
  2  3  1  0
  3  4  2  0
  3  5  1  0
  5  6  1  0
  3  7  1  0
  7  8  1  0
  8  9  2  3
  9 10  1  0
  9 11  1  0
M  END
> <Name>
DICHLORVOS

> <SMILES>
COP(=O)(OC)OC=C(Cl)Cl

> <Reference>
NTP/TR-342

> <Id>
62-73-7

> <Actual Value>
POS

> <Predicted Value>
0.978 POS

> <Used>
1

> <Status>
Carcinogen

> <iscarc>
1

$$$$
N.T.A.
  SciTegic06161615512D

 13 12  0  0  0  0            999 V2000
    0.0000    0.0000    0.0000 O   0  0
    0.0000    0.0000    0.0000 C   0  0
    0.0000    0.0000    0.0000 O   0  0
    0.0000    0.0000    0.0000 C   0  0
    0.0000    0.0000    0.0000 N   0  0
    0.0000    0.0000    0.0000 C   0  0
    0.0000    0.0000    0.0000 C   0  0
    0.0000    0.0000    0.0000 O   0  0
    0.0000    0.0000    0.0000 O   0  0
    0.0000    0.0000    0.0000 C   0  0
    0.0000    0.0000    0.0000 C   0  0
    0.0000    0.0000    0.0000 O   0  0
    0.0000    0.0000    0.0000 O   0  0
  1  2  1  0
  2  3  2  0
  2  4  1  0
  4  5  1  0
  5  6  1  0
  6  7  1  0
  7  8  1  0
  7  9  2  0
  5 10  1  0
 10 11  1  0
 11 12  1  0
 11 13  2  0
M  END
> <Name>
N.T.A.

> <SMILES>
OC(=O)CN(CC(O)=O)CC(O)=O

> <Reference>
NTP/TR-6

> <Id>
139-13-9

> <Actual Value>
POS

> <Predicted Value>
0.027 NEG

> <Used>
1

> <Status>
Carcinogen

> <iscarc>
1

$$$$
o-NITROANISOLE
  SciTegic06161615512D

 11 11  0  0  0  0            999 V2000
    0.0000    0.0000    0.0000 C   0  0
    0.0000    0.0000    0.0000 O   0  0
    0.0000    0.0000    0.0000 C   0  0
    0.0000    0.0000    0.0000 C   0  0
    0.0000    0.0000    0.0000 C   0  0
    0.0000    0.0000    0.0000 C   0  0
    0.0000    0.0000    0.0000 C   0  0
    0.0000    0.0000    0.0000 C   0  0
    0.0000    0.0000    0.0000 N   0  0
    0.0000    0.0000    0.0000 O   0  0
    0.0000    0.0000    0.0000 O   0  0
  1  2  1  0
  2  3  1  0
  3  4  2  3
  4  5  1  0
  5  6  2  3
  6  7  1  0
  7  8  2  3
  8  3  1  0
  8  9  1  0
  9 10  2  0
  9 11  2  0
M  END
> <Name>
o-NITROANISOLE

> <SMILES>
COc1ccccc1N(=O)=O

> <Reference>
NTP/TR-416

> <Id>
91-23-6

> <Actual Value>
POS

> <Predicted Value>
0.225 NEG

> <Used>
1

> <Status>
Carcinogen

> <iscarc>
1

$$$$
L-TRYPTOPHAN
  SciTegic06161615512D

 15 16  0  0  0  0            999 V2000
    0.0000    0.0000    0.0000 N   0  0
    0.0000    0.0000    0.0000 C   0  0
    0.0000    0.0000    0.0000 C   0  0
    0.0000    0.0000    0.0000 C   0  0
    0.0000    0.0000    0.0000 C   0  0
    0.0000    0.0000    0.0000 N   0  0
    0.0000    0.0000    0.0000 C   0  0
    0.0000    0.0000    0.0000 C   0  0
    0.0000    0.0000    0.0000 C   0  0
    0.0000    0.0000    0.0000 C   0  0
    0.0000    0.0000    0.0000 C   0  0
    0.0000    0.0000    0.0000 C   0  0
    0.0000    0.0000    0.0000 C   0  0
    0.0000    0.0000    0.0000 O   0  0
    0.0000    0.0000    0.0000 O   0  0
  1  2  1  0
  2  3  1  0
  3  4  1  0
  4  5  2  3
  5  6  1  0
  6  7  1  0
  7  8  2  3
  8  9  1  0
  9 10  2  3
 10 11  1  0
 11 12  2  3
 12  4  1  0
 12  7  1  0
  2 13  1  0
 13 14  1  0
 13 15  2  0
M  END
> <Name>
L-TRYPTOPHAN

> <SMILES>
NC(Cc1c[nH]c2ccccc12)C(O)=O

> <Reference>
NTP/TR-71

> <Id>
73-22-3

> <Actual Value>
NEG

> <Predicted Value>
0.000 NEG

> <Used>
1

> <Status>
Non-Carcinogen

> <iscarc>
0

$$$$
DIMETHOATE
  SciTegic06161615512D

 12 11  0  0  0  0            999 V2000
    0.0000    0.0000    0.0000 C   0  0
    0.0000    0.0000    0.0000 N   0  0
    0.0000    0.0000    0.0000 C   0  0
    0.0000    0.0000    0.0000 O   0  0
    0.0000    0.0000    0.0000 C   0  0
    0.0000    0.0000    0.0000 S   0  0
    0.0000    0.0000    0.0000 P   0  0
    0.0000    0.0000    0.0000 S   0  0
    0.0000    0.0000    0.0000 O   0  0
    0.0000    0.0000    0.0000 C   0  0
    0.0000    0.0000    0.0000 O   0  0
    0.0000    0.0000    0.0000 C   0  0
  1  2  1  0
  2  3  1  0
  3  4  2  0
  3  5  1  0
  5  6  1  0
  6  7  1  0
  7  8  2  0
  7  9  1  0
  9 10  1  0
  7 11  1  0
 11 12  1  0
M  END
> <Name>
DIMETHOATE

> <SMILES>
CNC(=O)CSP(=S)(OC)OC

> <Reference>
NTP/TR-4

> <Id>
60-51-5

> <Actual Value>
NEG

> <Predicted Value>
0.000 NEG

> <Used>
1

> <Status>
Non-Carcinogen

> <iscarc>
0

$$$$
2-MERCAPTOBENZOTHIAZOLE
  SciTegic06161615512D

 10 11  0  0  0  0            999 V2000
    0.0000    0.0000    0.0000 S   0  0
    0.0000    0.0000    0.0000 C   0  0
    0.0000    0.0000    0.0000 N   0  0
    0.0000    0.0000    0.0000 C   0  0
    0.0000    0.0000    0.0000 C   0  0
    0.0000    0.0000    0.0000 C   0  0
    0.0000    0.0000    0.0000 C   0  0
    0.0000    0.0000    0.0000 C   0  0
    0.0000    0.0000    0.0000 C   0  0
    0.0000    0.0000    0.0000 S   0  0
  1  2  1  0
  2  3  2  3
  3  4  1  0
  4  5  2  3
  5  6  1  0
  6  7  2  3
  7  8  1  0
  8  9  2  3
  9  4  1  0
  9 10  1  0
 10  2  1  0
M  END
> <Name>
2-MERCAPTOBENZOTHIAZOLE

> <SMILES>
S=c2[nH]c1ccccc1s2

> <Reference>
NTP/TR-332

> <Id>
149-30-4

> <Actual Value>
NEG

> <Predicted Value>
0.009 NEG

> <Used>
1

> <Status>
Non-Carcinogen

> <CanonicalTautomer>
Yes

> <NumberOfTautomers>
2

> <iscarc>
0

$$$$
PIPERONYL BUTAOXIDE
  SciTegic06161615512D

 24 25  0  0  0  0            999 V2000
    0.0000    0.0000    0.0000 C   0  0
    0.0000    0.0000    0.0000 C   0  0
    0.0000    0.0000    0.0000 C   0  0
    0.0000    0.0000    0.0000 C   0  0
    0.0000    0.0000    0.0000 O   0  0
    0.0000    0.0000    0.0000 C   0  0
    0.0000    0.0000    0.0000 C   0  0
    0.0000    0.0000    0.0000 O   0  0
    0.0000    0.0000    0.0000 C   0  0
    0.0000    0.0000    0.0000 C   0  0
    0.0000    0.0000    0.0000 O   0  0
    0.0000    0.0000    0.0000 C   0  0
    0.0000    0.0000    0.0000 C   0  0
    0.0000    0.0000    0.0000 C   0  0
    0.0000    0.0000    0.0000 C   0  0
    0.0000    0.0000    0.0000 O   0  0
    0.0000    0.0000    0.0000 C   0  0
    0.0000    0.0000    0.0000 O   0  0
    0.0000    0.0000    0.0000 C   0  0
    0.0000    0.0000    0.0000 C   0  0
    0.0000    0.0000    0.0000 C   0  0
    0.0000    0.0000    0.0000 C   0  0
    0.0000    0.0000    0.0000 C   0  0
    0.0000    0.0000    0.0000 C   0  0
  1  2  1  0
  2  3  1  0
  3  4  1  0
  4  5  1  0
  5  6  1  0
  6  7  1  0
  7  8  1  0
  8  9  1  0
  9 10  1  0
 10 11  1  0
 11 12  1  0
 12 13  1  0
 13 14  2  3
 14 15  1  0
 15 16  1  0
 16 17  1  0
 17 18  1  0
 18 19  1  0
 19 15  2  3
 19 20  1  0
 20 21  2  3
 21 13  1  0
 21 22  1  0
 22 23  1  0
 23 24  1  0
M  END
> <Name>
PIPERONYL BUTAOXIDE

> <SMILES>
CCCCOCCOCCOCc2cc1OCOc1cc2CCC

> <Reference>
NTP/TR-120

> <Id>
51-03-6

> <Actual Value>
NEG

> <Predicted Value>
0.000 NEG

> <Used>
1

> <Status>
Non-Carcinogen

> <iscarc>
0

$$$$
3-(CHLOROMETHYL)PYRIDINE.HCL
  SciTegic06161615512D

  8  8  0  0  0  0            999 V2000
    0.0000    0.0000    0.0000 Cl  0  0
    0.0000    0.0000    0.0000 C   0  0
    0.0000    0.0000    0.0000 C   0  0
    0.0000    0.0000    0.0000 C   0  0
    0.0000    0.0000    0.0000 C   0  0
    0.0000    0.0000    0.0000 C   0  0
    0.0000    0.0000    0.0000 N   0  0
    0.0000    0.0000    0.0000 C   0  0
  1  2  1  0
  2  3  1  0
  3  4  2  3
  4  5  1  0
  5  6  2  3
  6  7  1  0
  7  8  2  3
  8  3  1  0
M  END
> <Name>
3-(CHLOROMETHYL)PYRIDINE.HCL

> <SMILES>
ClCc1cccnc1

> <Reference>
NTP/TR-95

> <Id>
6959-48-4

> <Actual Value>
POS

> <Predicted Value>
0.711 POS

> <Used>
1

> <Status>
Carcinogen

> <iscarc>
1

$$$$
DIARYLANILIDE YELLOW
  SciTegic06161615512D

 44 47  0  0  0  0            999 V2000
    0.0000    0.0000    0.0000 C   0  0
    0.0000    0.0000    0.0000 C   0  0
    0.0000    0.0000    0.0000 O   0  0
    0.0000    0.0000    0.0000 C   0  0
    0.0000    0.0000    0.0000 N   0  0
    0.0000    0.0000    0.0000 N   0  0
    0.0000    0.0000    0.0000 C   0  0
    0.0000    0.0000    0.0000 C   0  0
    0.0000    0.0000    0.0000 C   0  0
    0.0000    0.0000    0.0000 C   0  0
    0.0000    0.0000    0.0000 C   0  0
    0.0000    0.0000    0.0000 C   0  0
    0.0000    0.0000    0.0000 Cl  0  0
    0.0000    0.0000    0.0000 C   0  0
    0.0000    0.0000    0.0000 C   0  0
    0.0000    0.0000    0.0000 C   0  0
    0.0000    0.0000    0.0000 C   0  0
    0.0000    0.0000    0.0000 N   0  0
    0.0000    0.0000    0.0000 N   0  0
    0.0000    0.0000    0.0000 C   0  0
    0.0000    0.0000    0.0000 C   0  0
    0.0000    0.0000    0.0000 C   0  0
    0.0000    0.0000    0.0000 O   0  0
    0.0000    0.0000    0.0000 C   0  0
    0.0000    0.0000    0.0000 O   0  0
    0.0000    0.0000    0.0000 N   0  0
    0.0000    0.0000    0.0000 C   0  0
    0.0000    0.0000    0.0000 C   0  0
    0.0000    0.0000    0.0000 C   0  0
    0.0000    0.0000    0.0000 C   0  0
    0.0000    0.0000    0.0000 C   0  0
    0.0000    0.0000    0.0000 C   0  0
    0.0000    0.0000    0.0000 C   0  0
    0.0000    0.0000    0.0000 Cl  0  0
    0.0000    0.0000    0.0000 C   0  0
    0.0000    0.0000    0.0000 C   0  0
    0.0000    0.0000    0.0000 O   0  0
    0.0000    0.0000    0.0000 N   0  0
    0.0000    0.0000    0.0000 C   0  0
    0.0000    0.0000    0.0000 C   0  0
    0.0000    0.0000    0.0000 C   0  0
    0.0000    0.0000    0.0000 C   0  0
    0.0000    0.0000    0.0000 C   0  0
    0.0000    0.0000    0.0000 C   0  0
  1  2  1  0
  2  3  2  0
  2  4  1  0
  4  5  1  0
  5  6  2  3
  6  7  1  0
  7  8  2  3
  8  9  1  0
  9 10  2  3
 10 11  1  0
 11 12  2  3
 12  7  1  0
 12 13  1  0
 10 14  1  0
 14 15  2  3
 15 16  1  0
 16 17  2  3
 17 18  1  0
 18 19  2  3
 19 20  1  0
 20 21  1  0
 21 22  1  0
 21 23  2  0
 20 24  1  0
 24 25  2  0
 24 26  1  0
 26 27  1  0
 27 28  2  3
 28 29  1  0
 29 30  2  3
 30 31  1  0
 31 32  2  3
 32 27  1  0
 17 33  1  0
 33 34  1  0
 33 35  2  3
 35 14  1  0
  4 36  1  0
 36 37  2  0
 36 38  1  0
 38 39  1  0
 39 40  2  3
 40 41  1  0
 41 42  2  3
 42 43  1  0
 43 44  2  3
 44 39  1  0
M  END
> <Name>
DIARYLANILIDE YELLOW

> <SMILES>
CC(=O)C(N=Nc1ccc(cc1Cl)c3ccc(N=NC(C(C)=O)C(=O)Nc2ccccc2)c(Cl)c3)C(=O)Nc4ccccc4

> <Reference>
NTP/TR-30

> <Id>
6358-85-6

> <Actual Value>
NEG

> <Predicted Value>
0.010 NEG

> <Used>
1

> <Status>
Non-Carcinogen

> <CanonicalTautomer>
Yes

> <NumberOfTautomers>
4

> <iscarc>
0

$$$$
ANILAZINE
  SciTegic06161615512D

 16 17  0  0  0  0            999 V2000
    0.0000    0.0000    0.0000 Cl  0  0
    0.0000    0.0000    0.0000 C   0  0
    0.0000    0.0000    0.0000 N   0  0
    0.0000    0.0000    0.0000 C   0  0
    0.0000    0.0000    0.0000 Cl  0  0
    0.0000    0.0000    0.0000 N   0  0
    0.0000    0.0000    0.0000 C   0  0
    0.0000    0.0000    0.0000 N   0  0
    0.0000    0.0000    0.0000 C   0  0
    0.0000    0.0000    0.0000 C   0  0
    0.0000    0.0000    0.0000 C   0  0
    0.0000    0.0000    0.0000 C   0  0
    0.0000    0.0000    0.0000 C   0  0
    0.0000    0.0000    0.0000 C   0  0
    0.0000    0.0000    0.0000 Cl  0  0
    0.0000    0.0000    0.0000 N   0  0
  1  2  1  0
  2  3  2  3
  3  4  1  0
  4  5  1  0
  4  6  2  3
  6  7  1  0
  7  8  1  0
  8  9  1  0
  9 10  2  3
 10 11  1  0
 11 12  2  3
 12 13  1  0
 13 14  2  3
 14  9  1  0
 14 15  1  0
  7 16  2  3
 16  2  1  0
M  END
> <Name>
ANILAZINE

> <SMILES>
Clc2nc(Cl)nc(Nc1ccccc1Cl)n2

> <Reference>
NTP/TR-104

> <Id>
101-05-3

> <Actual Value>
NEG

> <Predicted Value>
0.013 NEG

> <Used>
1

> <Status>
Non-Carcinogen

> <CanonicalTautomer>
Yes

> <NumberOfTautomers>
4

> <iscarc>
0

$$$$
SULFISOOXAZOLE
  SciTegic06161615512D

 18 19  0  0  0  0            999 V2000
    0.0000    0.0000    0.0000 C   0  0
    0.0000    0.0000    0.0000 C   0  0
    0.0000    0.0000    0.0000 N   0  0
    0.0000    0.0000    0.0000 O   0  0
    0.0000    0.0000    0.0000 C   0  0
    0.0000    0.0000    0.0000 N   0  0
    0.0000    0.0000    0.0000 S   0  0
    0.0000    0.0000    0.0000 O   0  0
    0.0000    0.0000    0.0000 O   0  0
    0.0000    0.0000    0.0000 C   0  0
    0.0000    0.0000    0.0000 C   0  0
    0.0000    0.0000    0.0000 C   0  0
    0.0000    0.0000    0.0000 C   0  0
    0.0000    0.0000    0.0000 N   0  0
    0.0000    0.0000    0.0000 C   0  0
    0.0000    0.0000    0.0000 C   0  0
    0.0000    0.0000    0.0000 C   0  0
    0.0000    0.0000    0.0000 C   0  0
  1  2  1  0
  2  3  2  3
  3  4  1  0
  4  5  1  0
  5  6  1  0
  6  7  1  0
  7  8  2  0
  7  9  2  0
  7 10  1  0
 10 11  2  3
 11 12  1  0
 12 13  2  3
 13 14  1  0
 13 15  1  0
 15 16  2  3
 16 10  1  0
  5 17  2  3
 17  2  1  0
 17 18  1  0
M  END
> <Name>
SULFISOOXAZOLE

> <SMILES>
Cc2noc(NS(=O)(=O)c1ccc(N)cc1)c2C

> <Reference>
NTP/TR-138

> <Id>
127-69-5

> <Actual Value>
NEG

> <Predicted Value>
0.000 NEG

> <Used>
1

> <Status>
Non-Carcinogen

> <CanonicalTautomer>
Yes

> <NumberOfTautomers>
2

> <iscarc>
0

$$$$
TRICHLOROETHYLENE
  SciTegic06161615512D

  5  4  0  0  0  0            999 V2000
    0.0000    0.0000    0.0000 Cl  0  0
    0.0000    0.0000    0.0000 C   0  0
    0.0000    0.0000    0.0000 C   0  0
    0.0000    0.0000    0.0000 Cl  0  0
    0.0000    0.0000    0.0000 Cl  0  0
  1  2  1  0
  2  3  2  3
  3  4  1  0
  3  5  1  0
M  END
> <Name>
TRICHLOROETHYLENE

> <SMILES>
ClC=C(Cl)Cl

> <Reference>
NTP/TR-243

> <Id>
79-01-6

> <Actual Value>
POS

> <Predicted Value>
1.000 POS

> <Used>
1

> <Status>
Carcinogen

> <iscarc>
1

$$$$
5-NITRO-o-TOLUIDINE
  SciTegic06161615512D

 11 11  0  0  0  0            999 V2000
    0.0000    0.0000    0.0000 C   0  0
    0.0000    0.0000    0.0000 C   0  0
    0.0000    0.0000    0.0000 C   0  0
    0.0000    0.0000    0.0000 C   0  0
    0.0000    0.0000    0.0000 C   0  0
    0.0000    0.0000    0.0000 C   0  0
    0.0000    0.0000    0.0000 C   0  0
    0.0000    0.0000    0.0000 N   0  0
    0.0000    0.0000    0.0000 N   0  0
    0.0000    0.0000    0.0000 O   0  0
    0.0000    0.0000    0.0000 O   0  0
  1  2  1  0
  2  3  2  3
  3  4  1  0
  4  5  2  3
  5  6  1  0
  6  7  2  3
  7  2  1  0
  7  8  1  0
  5  9  1  0
  9 10  2  0
  9 11  2  0
M  END
> <Name>
5-NITRO-o-TOLUIDINE

> <SMILES>
Cc1ccc(cc1N)N(=O)=O

> <Reference>
NTP/TR-107

> <Id>
99-55-8

> <Actual Value>
POS

> <Predicted Value>
0.997 POS

> <Used>
1

> <Status>
Carcinogen

> <iscarc>
1

$$$$
PENICILLIN VK
  SciTegic06161615512D

 24 26  0  0  0  0            999 V2000
    0.0000    0.0000    0.0000 C   0  0
    0.0000    0.0000    0.0000 C   0  0
    0.0000    0.0000    0.0000 C   0  0
    0.0000    0.0000    0.0000 S   0  0
    0.0000    0.0000    0.0000 C   0  0
    0.0000    0.0000    0.0000 C   0  0
    0.0000    0.0000    0.0000 N   0  0
    0.0000    0.0000    0.0000 C   0  0
    0.0000    0.0000    0.0000 O   0  0
    0.0000    0.0000    0.0000 C   0  0
    0.0000    0.0000    0.0000 O   0  0
    0.0000    0.0000    0.0000 C   0  0
    0.0000    0.0000    0.0000 C   0  0
    0.0000    0.0000    0.0000 C   0  0
    0.0000    0.0000    0.0000 C   0  0
    0.0000    0.0000    0.0000 C   0  0
    0.0000    0.0000    0.0000 C   0  0
    0.0000    0.0000    0.0000 C   0  0
    0.0000    0.0000    0.0000 O   0  0
    0.0000    0.0000    0.0000 N   0  0
    0.0000    0.0000    0.0000 C   0  0
    0.0000    0.0000    0.0000 C   0  0
    0.0000    0.0000    0.0000 O   0  0
    0.0000    0.0000    0.0000 O   0  0
  1  2  1  0
  2  3  1  0
  2  4  1  0
  4  5  1  0
  5  6  1  0
  6  7  1  0
  7  8  1  0
  8  9  2  0
  8 10  1  0
 10 11  1  0
 11 12  1  0
 12 13  2  3
 13 14  1  0
 14 15  2  3
 15 16  1  0
 16 17  2  3
 17 12  1  0
  6 18  1  0
 18 19  2  0
 18 20  1  0
 20  5  1  0
 20 21  1  0
 21  2  1  0
 21 22  1  0
 22 23  1  0
 22 24  2  0
M  END
> <Name>
PENICILLIN VK

> <SMILES>
CC3(C)SC2C(NC(=O)COc1ccccc1)C(=O)N2C3C(O)=O

> <Reference>
NTP/TR-336

> <Id>
132-98-9

> <Actual Value>
NEG

> <Predicted Value>
0.010 NEG

> <Used>
1

> <Status>
Non-Carcinogen

> <iscarc>
0

$$$$
PROCARBAZINE
  SciTegic06161615512D

 16 16  0  0  0  0            999 V2000
    0.0000    0.0000    0.0000 C   0  0
    0.0000    0.0000    0.0000 N   0  0
    0.0000    0.0000    0.0000 N   0  0
    0.0000    0.0000    0.0000 C   0  0
    0.0000    0.0000    0.0000 C   0  0
    0.0000    0.0000    0.0000 C   0  0
    0.0000    0.0000    0.0000 C   0  0
    0.0000    0.0000    0.0000 C   0  0
    0.0000    0.0000    0.0000 C   0  0
    0.0000    0.0000    0.0000 C   0  0
    0.0000    0.0000    0.0000 C   0  0
    0.0000    0.0000    0.0000 O   0  0
    0.0000    0.0000    0.0000 N   0  0
    0.0000    0.0000    0.0000 C   0  0
    0.0000    0.0000    0.0000 C   0  0
    0.0000    0.0000    0.0000 C   0  0
  1  2  1  0
  2  3  1  0
  3  4  1  0
  4  5  1  0
  5  6  2  3
  6  7  1  0
  7  8  2  3
  8  9  1  0
  9 10  2  3
 10  5  1  0
  8 11  1  0
 11 12  2  0
 11 13  1  0
 13 14  1  0
 14 15  1  0
 14 16  1  0
M  END
> <Name>
PROCARBAZINE

> <SMILES>
CNNCc1ccc(cc1)C(=O)NC(C)C

> <Reference>
NTP/TR-19

> <Id>
366-70-1

> <Actual Value>
POS

> <Predicted Value>
1.000 POS

> <Used>
1

> <Status>
Carcinogen

> <iscarc>
1

$$$$
2-AMINO-4-NITROPHENOL
  SciTegic06161615512D

 11 11  0  0  0  0            999 V2000
    0.0000    0.0000    0.0000 N   0  0
    0.0000    0.0000    0.0000 C   0  0
    0.0000    0.0000    0.0000 C   0  0
    0.0000    0.0000    0.0000 C   0  0
    0.0000    0.0000    0.0000 C   0  0
    0.0000    0.0000    0.0000 C   0  0
    0.0000    0.0000    0.0000 C   0  0
    0.0000    0.0000    0.0000 O   0  0
    0.0000    0.0000    0.0000 N   0  0
    0.0000    0.0000    0.0000 O   0  0
    0.0000    0.0000    0.0000 O   0  0
  1  2  1  0
  2  3  2  3
  3  4  1  0
  4  5  2  3
  5  6  1  0
  6  7  2  3
  7  2  1  0
  7  8  1  0
  4  9  1  0
  9 10  2  0
  9 11  2  0
M  END
> <Name>
2-AMINO-4-NITROPHENOL

> <SMILES>
Nc1cc(ccc1O)N(=O)=O

> <Reference>
NTP/TR-339

> <Id>
99-57-0

> <Actual Value>
NEG

> <Predicted Value>
0.004 NEG

> <Used>
1

> <Status>
Non-Carcinogen

> <iscarc>
0

$$$$
1;2-DICHLOROPROPANE
  SciTegic06161615512D

  5  4  0  0  0  0            999 V2000
    0.0000    0.0000    0.0000 C   0  0
    0.0000    0.0000    0.0000 C   0  0
    0.0000    0.0000    0.0000 Cl  0  0
    0.0000    0.0000    0.0000 C   0  0
    0.0000    0.0000    0.0000 Cl  0  0
  1  2  1  0
  2  3  1  0
  2  4  1  0
  4  5  1  0
M  END
> <Name>
1;2-DICHLOROPROPANE

> <SMILES>
CC(Cl)CCl

> <Reference>
NTP/TR-263

> <Id>
78-87-5

> <Actual Value>
POS

> <Predicted Value>
0.990 POS

> <Used>
1

> <Status>
Carcinogen

> <iscarc>
1

$$$$
4-NITRO-o-PHENYLENEDIAMINE
  SciTegic06161615512D

 11 11  0  0  0  0            999 V2000
    0.0000    0.0000    0.0000 N   0  0
    0.0000    0.0000    0.0000 C   0  0
    0.0000    0.0000    0.0000 C   0  0
    0.0000    0.0000    0.0000 C   0  0
    0.0000    0.0000    0.0000 C   0  0
    0.0000    0.0000    0.0000 C   0  0
    0.0000    0.0000    0.0000 C   0  0
    0.0000    0.0000    0.0000 N   0  0
    0.0000    0.0000    0.0000 N   0  0
    0.0000    0.0000    0.0000 O   0  0
    0.0000    0.0000    0.0000 O   0  0
  1  2  1  0
  2  3  2  3
  3  4  1  0
  4  5  2  3
  5  6  1  0
  6  7  2  3
  7  2  1  0
  7  8  1  0
  5  9  1  0
  9 10  2  0
  9 11  2  0
M  END
> <Name>
4-NITRO-o-PHENYLENEDIAMINE

> <SMILES>
Nc1ccc(cc1N)N(=O)=O

> <Reference>
NTP/TR-180

> <Id>
99-56-9

> <Actual Value>
NEG

> <Predicted Value>
0.013 NEG

> <Used>
1

> <Status>
Non-Carcinogen

> <iscarc>
0

$$$$
p;p'-DDE
  SciTegic06161615512D

 18 19  0  0  0  0            999 V2000
    0.0000    0.0000    0.0000 Cl  0  0
    0.0000    0.0000    0.0000 C   0  0
    0.0000    0.0000    0.0000 Cl  0  0
    0.0000    0.0000    0.0000 C   0  0
    0.0000    0.0000    0.0000 C   0  0
    0.0000    0.0000    0.0000 C   0  0
    0.0000    0.0000    0.0000 C   0  0
    0.0000    0.0000    0.0000 C   0  0
    0.0000    0.0000    0.0000 Cl  0  0
    0.0000    0.0000    0.0000 C   0  0
    0.0000    0.0000    0.0000 C   0  0
    0.0000    0.0000    0.0000 C   0  0
    0.0000    0.0000    0.0000 C   0  0
    0.0000    0.0000    0.0000 C   0  0
    0.0000    0.0000    0.0000 C   0  0
    0.0000    0.0000    0.0000 Cl  0  0
    0.0000    0.0000    0.0000 C   0  0
    0.0000    0.0000    0.0000 C   0  0
  1  2  1  0
  2  3  1  0
  2  4  2  3
  4  5  1  0
  5  6  2  3
  6  7  1  0
  7  8  2  3
  8  9  1  0
  8 10  1  0
 10 11  2  3
 11  5  1  0
  4 12  1  0
 12 13  2  3
 13 14  1  0
 14 15  2  3
 15 16  1  0
 15 17  1  0
 17 18  2  3
 18 12  1  0
M  END
> <Name>
p;p'-DDE

> <SMILES>
ClC(Cl)=C(c1ccc(Cl)cc1)c2ccc(Cl)cc2

> <Reference>
NTP/TR-131

> <Id>
72-55-9

> <Actual Value>
POS

> <Predicted Value>
1.000 POS

> <Used>
1

> <Status>
Carcinogen

> <iscarc>
1

$$$$
EPHEDRINE SULPHATE
  SciTegic06161615512D

 12 12  0  0  0  0            999 V2000
    0.0000    0.0000    0.0000 C   0  0
    0.0000    0.0000    0.0000 N   0  0
    0.0000    0.0000    0.0000 C   0  0
    0.0000    0.0000    0.0000 C   0  0
    0.0000    0.0000    0.0000 C   0  0
    0.0000    0.0000    0.0000 O   0  0
    0.0000    0.0000    0.0000 C   0  0
    0.0000    0.0000    0.0000 C   0  0
    0.0000    0.0000    0.0000 C   0  0
    0.0000    0.0000    0.0000 C   0  0
    0.0000    0.0000    0.0000 C   0  0
    0.0000    0.0000    0.0000 C   0  0
  1  2  1  0
  2  3  1  0
  3  4  1  0
  3  5  1  0
  5  6  1  0
  5  7  1  0
  7  8  2  3
  8  9  1  0
  9 10  2  3
 10 11  1  0
 11 12  2  3
 12  7  1  0
M  END
> <Name>
EPHEDRINE SULPHATE

> <SMILES>
CNC(C)C(O)c1ccccc1

> <Reference>
NTP/TR-307

> <Id>
134-72-5

> <Actual Value>
NEG

> <Predicted Value>
0.007 NEG

> <Used>
1

> <Status>
Non-Carcinogen

> <iscarc>
0

$$$$
3-NITRO-p-ACETOPHENETIDE
  SciTegic06161615512D

 16 16  0  0  0  0            999 V2000
    0.0000    0.0000    0.0000 C   0  0
    0.0000    0.0000    0.0000 C   0  0
    0.0000    0.0000    0.0000 O   0  0
    0.0000    0.0000    0.0000 C   0  0
    0.0000    0.0000    0.0000 C   0  0
    0.0000    0.0000    0.0000 C   0  0
    0.0000    0.0000    0.0000 C   0  0
    0.0000    0.0000    0.0000 N   0  0
    0.0000    0.0000    0.0000 C   0  0
    0.0000    0.0000    0.0000 C   0  0
    0.0000    0.0000    0.0000 O   0  0
    0.0000    0.0000    0.0000 C   0  0
    0.0000    0.0000    0.0000 C   0  0
    0.0000    0.0000    0.0000 N   0  0
    0.0000    0.0000    0.0000 O   0  0
    0.0000    0.0000    0.0000 O   0  0
  1  2  1  0
  2  3  1  0
  3  4  1  0
  4  5  2  3
  5  6  1  0
  6  7  2  3
  7  8  1  0
  8  9  1  0
  9 10  1  0
  9 11  2  0
  7 12  1  0
 12 13  2  3
 13  4  1  0
 13 14  1  0
 14 15  2  0
 14 16  2  0
M  END
> <Name>
3-NITRO-p-ACETOPHENETIDE

> <SMILES>
CCOc1ccc(NC(C)=O)cc1N(=O)=O

> <Reference>
NTP/TR-133

> <Id>
1777-84-0

> <Actual Value>
POS

> <Predicted Value>
0.975 POS

> <Used>
1

> <Status>
Carcinogen

> <CanonicalTautomer>
Yes

> <NumberOfTautomers>
2

> <iscarc>
1

$$$$
1-NITRONAPHTHALENE
  SciTegic06161615512D

 13 14  0  0  0  0            999 V2000
    0.0000    0.0000    0.0000 O   0  0
    0.0000    0.0000    0.0000 N   0  0
    0.0000    0.0000    0.0000 O   0  0
    0.0000    0.0000    0.0000 C   0  0
    0.0000    0.0000    0.0000 C   0  0
    0.0000    0.0000    0.0000 C   0  0
    0.0000    0.0000    0.0000 C   0  0
    0.0000    0.0000    0.0000 C   0  0
    0.0000    0.0000    0.0000 C   0  0
    0.0000    0.0000    0.0000 C   0  0
    0.0000    0.0000    0.0000 C   0  0
    0.0000    0.0000    0.0000 C   0  0
    0.0000    0.0000    0.0000 C   0  0
  1  2  2  0
  2  3  2  0
  2  4  1  0
  4  5  2  3
  5  6  1  0
  6  7  2  3
  7  8  1  0
  8  9  2  3
  9 10  1  0
 10 11  2  3
 11 12  1  0
 12 13  2  3
 13  4  1  0
 13  8  1  0
M  END
> <Name>
1-NITRONAPHTHALENE

> <SMILES>
O=N(=O)c1cccc2ccccc12

> <Reference>
NTP/TR-64

> <Id>
86-57-7

> <Actual Value>
NEG

> <Predicted Value>
0.008 NEG

> <Used>
1

> <Status>
Non-Carcinogen

> <iscarc>
0

$$$$
2-NITRO-p-PHENYLENEDIAMINE
  SciTegic06161615512D

 11 11  0  0  0  0            999 V2000
    0.0000    0.0000    0.0000 N   0  0
    0.0000    0.0000    0.0000 C   0  0
    0.0000    0.0000    0.0000 C   0  0
    0.0000    0.0000    0.0000 C   0  0
    0.0000    0.0000    0.0000 C   0  0
    0.0000    0.0000    0.0000 N   0  0
    0.0000    0.0000    0.0000 C   0  0
    0.0000    0.0000    0.0000 C   0  0
    0.0000    0.0000    0.0000 N   0  0
    0.0000    0.0000    0.0000 O   0  0
    0.0000    0.0000    0.0000 O   0  0
  1  2  1  0
  2  3  2  3
  3  4  1  0
  4  5  2  3
  5  6  1  0
  5  7  1  0
  7  8  2  3
  8  2  1  0
  7  9  1  0
  9 10  2  0
  9 11  2  0
M  END
> <Name>
2-NITRO-p-PHENYLENEDIAMINE

> <SMILES>
Nc1ccc(N)c(c1)N(=O)=O

> <Reference>
NTP/TR-169

> <Id>
5307-14-2

> <Actual Value>
NEG

> <Predicted Value>
0.014 NEG

> <Used>
1

> <Status>
Non-Carcinogen

> <iscarc>
0

$$$$
CHLORBENZILATE
  SciTegic06161615512D

 21 22  0  0  0  0            999 V2000
    0.0000    0.0000    0.0000 C   0  0
    0.0000    0.0000    0.0000 C   0  0
    0.0000    0.0000    0.0000 O   0  0
    0.0000    0.0000    0.0000 C   0  0
    0.0000    0.0000    0.0000 O   0  0
    0.0000    0.0000    0.0000 C   0  0
    0.0000    0.0000    0.0000 O   0  0
    0.0000    0.0000    0.0000 C   0  0
    0.0000    0.0000    0.0000 C   0  0
    0.0000    0.0000    0.0000 C   0  0
    0.0000    0.0000    0.0000 C   0  0
    0.0000    0.0000    0.0000 Cl  0  0
    0.0000    0.0000    0.0000 C   0  0
    0.0000    0.0000    0.0000 C   0  0
    0.0000    0.0000    0.0000 C   0  0
    0.0000    0.0000    0.0000 C   0  0
    0.0000    0.0000    0.0000 C   0  0
    0.0000    0.0000    0.0000 C   0  0
    0.0000    0.0000    0.0000 Cl  0  0
    0.0000    0.0000    0.0000 C   0  0
    0.0000    0.0000    0.0000 C   0  0
  1  2  1  0
  2  3  1  0
  3  4  1  0
  4  5  2  0
  4  6  1  0
  6  7  1  0
  6  8  1  0
  8  9  2  3
  9 10  1  0
 10 11  2  3
 11 12  1  0
 11 13  1  0
 13 14  2  3
 14  8  1  0
  6 15  1  0
 15 16  2  3
 16 17  1  0
 17 18  2  3
 18 19  1  0
 18 20  1  0
 20 21  2  3
 21 15  1  0
M  END
> <Name>
CHLORBENZILATE

> <SMILES>
CCOC(=O)C(O)(c1ccc(Cl)cc1)c2ccc(Cl)cc2

> <Reference>
NTP/TR-75

> <Id>
510-15-6

> <Actual Value>
POS

> <Predicted Value>
1.000 POS

> <Used>
1

> <Status>
Carcinogen

> <iscarc>
1

$$$$
METHYL PARATHION
  SciTegic06161615512D

 16 16  0  0  0  0            999 V2000
    0.0000    0.0000    0.0000 C   0  0
    0.0000    0.0000    0.0000 O   0  0
    0.0000    0.0000    0.0000 P   0  0
    0.0000    0.0000    0.0000 S   0  0
    0.0000    0.0000    0.0000 O   0  0
    0.0000    0.0000    0.0000 C   0  0
    0.0000    0.0000    0.0000 O   0  0
    0.0000    0.0000    0.0000 C   0  0
    0.0000    0.0000    0.0000 C   0  0
    0.0000    0.0000    0.0000 C   0  0
    0.0000    0.0000    0.0000 C   0  0
    0.0000    0.0000    0.0000 C   0  0
    0.0000    0.0000    0.0000 C   0  0
    0.0000    0.0000    0.0000 N   0  0
    0.0000    0.0000    0.0000 O   0  0
    0.0000    0.0000    0.0000 O   0  0
  1  2  1  0
  2  3  1  0
  3  4  2  0
  3  5  1  0
  5  6  1  0
  3  7  1  0
  7  8  1  0
  8  9  2  3
  9 10  1  0
 10 11  2  3
 11 12  1  0
 12 13  2  3
 13  8  1  0
 11 14  1  0
 14 15  2  0
 14 16  2  0
M  END
> <Name>
METHYL PARATHION

> <SMILES>
COP(=S)(OC)Oc1ccc(cc1)N(=O)=O

> <Reference>
NTP/TR-157

> <Id>
298-00-0

> <Actual Value>
NEG

> <Predicted Value>
0.007 NEG

> <Used>
1

> <Status>
Non-Carcinogen

> <iscarc>
0

$$$$
ANTHRANILIC ACID
  SciTegic06161615512D

 10 10  0  0  0  0            999 V2000
    0.0000    0.0000    0.0000 N   0  0
    0.0000    0.0000    0.0000 C   0  0
    0.0000    0.0000    0.0000 C   0  0
    0.0000    0.0000    0.0000 C   0  0
    0.0000    0.0000    0.0000 C   0  0
    0.0000    0.0000    0.0000 C   0  0
    0.0000    0.0000    0.0000 C   0  0
    0.0000    0.0000    0.0000 C   0  0
    0.0000    0.0000    0.0000 O   0  0
    0.0000    0.0000    0.0000 O   0  0
  1  2  1  0
  2  3  2  3
  3  4  1  0
  4  5  2  3
  5  6  1  0
  6  7  2  3
  7  2  1  0
  7  8  1  0
  8  9  1  0
  8 10  2  0
M  END
> <Name>
ANTHRANILIC ACID

> <SMILES>
Nc1ccccc1C(O)=O

> <Reference>
NTP/TR-36

> <Id>
118-92-3

> <Actual Value>
NEG

> <Predicted Value>
0.000 NEG

> <Used>
1

> <Status>
Non-Carcinogen

> <iscarc>
0

$$$$
2;4-DINITROTOLUENE
  SciTegic06161615512D

 13 13  0  0  0  0            999 V2000
    0.0000    0.0000    0.0000 C   0  0
    0.0000    0.0000    0.0000 C   0  0
    0.0000    0.0000    0.0000 C   0  0
    0.0000    0.0000    0.0000 C   0  0
    0.0000    0.0000    0.0000 C   0  0
    0.0000    0.0000    0.0000 C   0  0
    0.0000    0.0000    0.0000 C   0  0
    0.0000    0.0000    0.0000 N   0  0
    0.0000    0.0000    0.0000 O   0  0
    0.0000    0.0000    0.0000 O   0  0
    0.0000    0.0000    0.0000 N   0  0
    0.0000    0.0000    0.0000 O   0  0
    0.0000    0.0000    0.0000 O   0  0
  1  2  1  0
  2  3  2  3
  3  4  1  0
  4  5  2  3
  5  6  1  0
  6  7  2  3
  7  2  1  0
  7  8  1  0
  8  9  2  0
  8 10  2  0
  5 11  1  0
 11 12  2  0
 11 13  2  0
M  END
> <Name>
2;4-DINITROTOLUENE

> <SMILES>
Cc1ccc(cc1N(=O)=O)N(=O)=O

> <Reference>
NTP/TR-54

> <Id>
121-14-2

> <Actual Value>
NEG

> <Predicted Value>
0.005 NEG

> <Used>
1

> <Status>
Non-Carcinogen

> <iscarc>
0

$$$$
AMPICILLIN TRIHYDRATE
  SciTegic06161615512D

 24 26  0  0  0  0            999 V2000
    0.0000    0.0000    0.0000 C   0  0
    0.0000    0.0000    0.0000 C   0  0
    0.0000    0.0000    0.0000 C   0  0
    0.0000    0.0000    0.0000 S   0  0
    0.0000    0.0000    0.0000 C   0  0
    0.0000    0.0000    0.0000 C   0  0
    0.0000    0.0000    0.0000 N   0  0
    0.0000    0.0000    0.0000 C   0  0
    0.0000    0.0000    0.0000 O   0  0
    0.0000    0.0000    0.0000 C   0  0
    0.0000    0.0000    0.0000 N   0  0
    0.0000    0.0000    0.0000 C   0  0
    0.0000    0.0000    0.0000 C   0  0
    0.0000    0.0000    0.0000 C   0  0
    0.0000    0.0000    0.0000 C   0  0
    0.0000    0.0000    0.0000 C   0  0
    0.0000    0.0000    0.0000 C   0  0
    0.0000    0.0000    0.0000 C   0  0
    0.0000    0.0000    0.0000 O   0  0
    0.0000    0.0000    0.0000 N   0  0
    0.0000    0.0000    0.0000 C   0  0
    0.0000    0.0000    0.0000 C   0  0
    0.0000    0.0000    0.0000 O   0  0
    0.0000    0.0000    0.0000 O   0  0
  1  2  1  0
  2  3  1  0
  2  4  1  0
  4  5  1  0
  5  6  1  0
  6  7  1  0
  7  8  1  0
  8  9  2  0
  8 10  1  0
 10 11  1  0
 10 12  1  0
 12 13  2  3
 13 14  1  0
 14 15  2  3
 15 16  1  0
 16 17  2  3
 17 12  1  0
  6 18  1  0
 18 19  2  0
 18 20  1  0
 20  5  1  0
 20 21  1  0
 21  2  1  0
 21 22  1  0
 22 23  1  0
 22 24  2  0
M  END
> <Name>
AMPICILLIN TRIHYDRATE

> <SMILES>
CC3(C)SC2C(NC(=O)C(N)c1ccccc1)C(=O)N2C3C(O)=O

> <Reference>
NTP/TR-318

> <Id>
7177-48-2

> <Actual Value>
NEG

> <Predicted Value>
0.000 NEG

> <Used>
1

> <Status>
Non-Carcinogen

> <iscarc>
0

$$$$
4-VINYL-1-CYCLOHEXANE DIEPOXIDE
  SciTegic06161615512D

 10 12  0  0  0  0            999 V2000
    0.0000    0.0000    0.0000 C   0  0
    0.0000    0.0000    0.0000 C   0  0
    0.0000    0.0000    0.0000 C   0  0
    0.0000    0.0000    0.0000 O   0  0
    0.0000    0.0000    0.0000 C   0  0
    0.0000    0.0000    0.0000 C   0  0
    0.0000    0.0000    0.0000 C   0  0
    0.0000    0.0000    0.0000 C   0  0
    0.0000    0.0000    0.0000 C   0  0
    0.0000    0.0000    0.0000 O   0  0
  1  2  1  0
  2  3  1  0
  3  4  1  0
  4  5  1  0
  5  3  1  0
  5  6  1  0
  6  7  1  0
  7  1  1  0
  7  8  1  0
  8  9  1  0
  9 10  1  0
 10  8  1  0
M  END
> <Name>
4-VINYL-1-CYCLOHEXANE DIEPOXIDE

> <SMILES>
C2CC1OC1CC2C3CO3

> <Reference>
NTP/TR-362

> <Id>
106-87-6

> <Actual Value>
POS

> <Predicted Value>
1.000 POS

> <Used>
1

> <Status>
Carcinogen

> <iscarc>
1

$$$$
2-AMINO-5-NITROTHIAZOLE
  SciTegic06161615512D

  9  9  0  0  0  0            999 V2000
    0.0000    0.0000    0.0000 N   0  0
    0.0000    0.0000    0.0000 C   0  0
    0.0000    0.0000    0.0000 N   0  0
    0.0000    0.0000    0.0000 C   0  0
    0.0000    0.0000    0.0000 C   0  0
    0.0000    0.0000    0.0000 S   0  0
    0.0000    0.0000    0.0000 N   0  0
    0.0000    0.0000    0.0000 O   0  0
    0.0000    0.0000    0.0000 O   0  0
  1  2  1  0
  2  3  2  3
  3  4  1  0
  4  5  2  3
  5  6  1  0
  6  2  1  0
  5  7  1  0
  7  8  2  0
  7  9  2  0
M  END
> <Name>
2-AMINO-5-NITROTHIAZOLE

> <SMILES>
Nc1ncc(s1)N(=O)=O

> <Reference>
NTP/TR-53

> <Id>
121-66-4

> <Actual Value>
NEG

> <Predicted Value>
0.000 NEG

> <Used>
1

> <Status>
Non-Carcinogen

> <CanonicalTautomer>
Yes

> <NumberOfTautomers>
2

> <iscarc>
0

$$$$
PHENYLEPHRINE HCL
  SciTegic06161615512D

 12 12  0  0  0  0            999 V2000
    0.0000    0.0000    0.0000 C   0  0
    0.0000    0.0000    0.0000 N   0  0
    0.0000    0.0000    0.0000 C   0  0
    0.0000    0.0000    0.0000 C   0  0
    0.0000    0.0000    0.0000 O   0  0
    0.0000    0.0000    0.0000 C   0  0
    0.0000    0.0000    0.0000 C   0  0
    0.0000    0.0000    0.0000 C   0  0
    0.0000    0.0000    0.0000 C   0  0
    0.0000    0.0000    0.0000 C   0  0
    0.0000    0.0000    0.0000 O   0  0
    0.0000    0.0000    0.0000 C   0  0
  1  2  1  0
  2  3  1  0
  3  4  1  0
  4  5  1  0
  4  6  1  0
  6  7  2  3
  7  8  1  0
  8  9  2  3
  9 10  1  0
 10 11  1  0
 10 12  2  3
 12  6  1  0
M  END
> <Name>
PHENYLEPHRINE HCL

> <SMILES>
CNCC(O)c1cccc(O)c1

> <Reference>
NTP/TR-322

> <Id>
61-76-7

> <Actual Value>
NEG

> <Predicted Value>
0.002 NEG

> <Used>
1

> <Status>
Non-Carcinogen

> <iscarc>
0

$$$$
TETRACHLOROETHYLENE
  SciTegic06161615512D

  6  5  0  0  0  0            999 V2000
    0.0000    0.0000    0.0000 Cl  0  0
    0.0000    0.0000    0.0000 C   0  0
    0.0000    0.0000    0.0000 Cl  0  0
    0.0000    0.0000    0.0000 C   0  0
    0.0000    0.0000    0.0000 Cl  0  0
    0.0000    0.0000    0.0000 Cl  0  0
  1  2  1  0
  2  3  1  0
  2  4  2  3
  4  5  1  0
  4  6  1  0
M  END
> <Name>
TETRACHLOROETHYLENE

> <SMILES>
ClC(Cl)=C(Cl)Cl

> <Reference>
NTP/TR-311

> <Id>
127-18-4

> <Actual Value>
POS

> <Predicted Value>
1.000 POS

> <Used>
1

> <Status>
Carcinogen

> <iscarc>
1

$$$$
LITHOCHOLIC ACID
  SciTegic06161615512D

 26 29  0  0  0  0            999 V2000
    0.0000    0.0000    0.0000 C   0  0
    0.0000    0.0000    0.0000 C   0  0
    0.0000    0.0000    0.0000 C   0  0
    0.0000    0.0000    0.0000 C   0  0
    0.0000    0.0000    0.0000 C   0  0
    0.0000    0.0000    0.0000 O   0  0
    0.0000    0.0000    0.0000 O   0  0
    0.0000    0.0000    0.0000 C   0  0
    0.0000    0.0000    0.0000 C   0  0
    0.0000    0.0000    0.0000 C   0  0
    0.0000    0.0000    0.0000 C   0  0
    0.0000    0.0000    0.0000 C   0  0
    0.0000    0.0000    0.0000 C   0  0
    0.0000    0.0000    0.0000 C   0  0
    0.0000    0.0000    0.0000 C   0  0
    0.0000    0.0000    0.0000 C   0  0
    0.0000    0.0000    0.0000 O   0  0
    0.0000    0.0000    0.0000 C   0  0
    0.0000    0.0000    0.0000 C   0  0
    0.0000    0.0000    0.0000 C   0  0
    0.0000    0.0000    0.0000 C   0  0
    0.0000    0.0000    0.0000 C   0  0
    0.0000    0.0000    0.0000 C   0  0
    0.0000    0.0000    0.0000 C   0  0
    0.0000    0.0000    0.0000 C   0  0
    0.0000    0.0000    0.0000 C   0  0
  1  2  1  0
  2  3  1  0
  3  4  1  0
  4  5  1  0
  5  6  1  0
  5  7  2  0
  2  8  1  0
  8  9  1  0
  9 10  1  0
 10 11  1  0
 11 12  1  0
 12 13  1  0
 13 14  1  0
 14 15  1  0
 15 16  1  0
 16 17  1  0
 16 18  1  0
 18 19  1  0
 19 20  1  0
 20 14  1  0
 20 21  1  0
 20 22  1  0
 22 11  1  0
 22 23  1  0
 23 24  1  0
 24 25  1  0
 25  8  1  0
 25 10  1  0
 25 26  1  0
M  END
> <Name>
LITHOCHOLIC ACID

> <SMILES>
CC(CCC(O)=O)C3CC4C2CCC1CC(O)CCC1(C)C2CCC34C

> <Reference>
NTP/TR-175

> <Id>
434-13-9

> <Actual Value>
NEG

> <Predicted Value>
0.000 NEG

> <Used>
1

> <Status>
Non-Carcinogen

> <iscarc>
0

$$$$
D.D.T.
  SciTegic06161615512D

 19 20  0  0  0  0            999 V2000
    0.0000    0.0000    0.0000 Cl  0  0
    0.0000    0.0000    0.0000 C   0  0
    0.0000    0.0000    0.0000 C   0  0
    0.0000    0.0000    0.0000 C   0  0
    0.0000    0.0000    0.0000 C   0  0
    0.0000    0.0000    0.0000 C   0  0
    0.0000    0.0000    0.0000 C   0  0
    0.0000    0.0000    0.0000 C   0  0
    0.0000    0.0000    0.0000 C   0  0
    0.0000    0.0000    0.0000 C   0  0
    0.0000    0.0000    0.0000 C   0  0
    0.0000    0.0000    0.0000 C   0  0
    0.0000    0.0000    0.0000 Cl  0  0
    0.0000    0.0000    0.0000 C   0  0
    0.0000    0.0000    0.0000 C   0  0
    0.0000    0.0000    0.0000 C   0  0
    0.0000    0.0000    0.0000 Cl  0  0
    0.0000    0.0000    0.0000 Cl  0  0
    0.0000    0.0000    0.0000 Cl  0  0
  1  2  1  0
  2  3  2  3
  3  4  1  0
  4  5  2  3
  5  6  1  0
  6  7  2  3
  7  2  1  0
  5  8  1  0
  8  9  1  0
  9 10  2  3
 10 11  1  0
 11 12  2  3
 12 13  1  0
 12 14  1  0
 14 15  2  3
 15  9  1  0
  8 16  1  0
 16 17  1  0
 16 18  1  0
 16 19  1  0
M  END
> <Name>
D.D.T.

> <SMILES>
Clc1ccc(cc1)C(c2ccc(Cl)cc2)C(Cl)(Cl)Cl

> <Reference>
NTP/TR-131

> <Id>
50-29-3

> <Actual Value>
NEG

> <Predicted Value>
0.000 NEG

> <Used>
1

> <Status>
Non-Carcinogen

> <iscarc>
0

$$$$
PYRAZINAMIDE
  SciTegic06161615512D

  9  9  0  0  0  0            999 V2000
    0.0000    0.0000    0.0000 N   0  0
    0.0000    0.0000    0.0000 C   0  0
    0.0000    0.0000    0.0000 O   0  0
    0.0000    0.0000    0.0000 C   0  0
    0.0000    0.0000    0.0000 C   0  0
    0.0000    0.0000    0.0000 N   0  0
    0.0000    0.0000    0.0000 C   0  0
    0.0000    0.0000    0.0000 C   0  0
    0.0000    0.0000    0.0000 N   0  0
  1  2  1  0
  2  3  2  0
  2  4  1  0
  4  5  2  3
  5  6  1  0
  6  7  2  3
  7  8  1  0
  8  9  2  3
  9  4  1  0
M  END
> <Name>
PYRAZINAMIDE

> <SMILES>
NC(=O)c1cnccn1

> <Reference>
NTP/TR-48

> <Id>
98-96-4

> <Actual Value>
NEG

> <Predicted Value>
0.001 NEG

> <Used>
1

> <Status>
Non-Carcinogen

> <iscarc>
0

$$$$
TRISODIUM E.D.T.A. TRIHYDRATE
  SciTegic06161615512D

 20 19  0  0  0  0            999 V2000
    0.0000    0.0000    0.0000 O   0  0
    0.0000    0.0000    0.0000 C   0  0
    0.0000    0.0000    0.0000 O   0  0
    0.0000    0.0000    0.0000 C   0  0
    0.0000    0.0000    0.0000 N   0  0
    0.0000    0.0000    0.0000 C   0  0
    0.0000    0.0000    0.0000 C   0  0
    0.0000    0.0000    0.0000 N   0  0
    0.0000    0.0000    0.0000 C   0  0
    0.0000    0.0000    0.0000 C   0  0
    0.0000    0.0000    0.0000 O   0  0
    0.0000    0.0000    0.0000 O   0  0
    0.0000    0.0000    0.0000 C   0  0
    0.0000    0.0000    0.0000 C   0  0
    0.0000    0.0000    0.0000 O   0  0
    0.0000    0.0000    0.0000 O   0  0
    0.0000    0.0000    0.0000 C   0  0
    0.0000    0.0000    0.0000 C   0  0
    0.0000    0.0000    0.0000 O   0  0
    0.0000    0.0000    0.0000 O   0  0
  1  2  1  0
  2  3  2  0
  2  4  1  0
  4  5  1  0
  5  6  1  0
  6  7  1  0
  7  8  1  0
  8  9  1  0
  9 10  1  0
 10 11  1  0
 10 12  2  0
  8 13  1  0
 13 14  1  0
 14 15  1  0
 14 16  2  0
  5 17  1  0
 17 18  1  0
 18 19  1  0
 18 20  2  0
M  END
> <Name>
TRISODIUM E.D.T.A. TRIHYDRATE

> <SMILES>
OC(=O)CN(CCN(CC(O)=O)CC(O)=O)CC(O)=O

> <Reference>
NTP/TR-11

> <Id>
150-38-9

> <Actual Value>
NEG

> <Predicted Value>
0.668 IND

> <Used>
1

> <Status>
Non-Carcinogen

> <iscarc>
0

$$$$
TRICHLOROFLUROMETHANE
  SciTegic06161615512D

  5  4  0  0  0  0            999 V2000
    0.0000    0.0000    0.0000 F   0  0
    0.0000    0.0000    0.0000 C   0  0
    0.0000    0.0000    0.0000 Cl  0  0
    0.0000    0.0000    0.0000 Cl  0  0
    0.0000    0.0000    0.0000 Cl  0  0
  1  2  1  0
  2  3  1  0
  2  4  1  0
  2  5  1  0
M  END
> <Name>
TRICHLOROFLUROMETHANE

> <SMILES>
FC(Cl)(Cl)Cl

> <Reference>
NTP/TR-106

> <Id>
75-69-4

> <Actual Value>
NEG

> <Predicted Value>
0.000 NEG

> <Used>
1

> <Status>
Non-Carcinogen

> <iscarc>
0

$$$$
LINDANE
  SciTegic06161615512D

 12 12  0  0  0  0            999 V2000
    0.0000    0.0000    0.0000 Cl  0  0
    0.0000    0.0000    0.0000 C   0  0
    0.0000    0.0000    0.0000 C   0  0
    0.0000    0.0000    0.0000 Cl  0  0
    0.0000    0.0000    0.0000 C   0  0
    0.0000    0.0000    0.0000 Cl  0  0
    0.0000    0.0000    0.0000 C   0  0
    0.0000    0.0000    0.0000 Cl  0  0
    0.0000    0.0000    0.0000 C   0  0
    0.0000    0.0000    0.0000 Cl  0  0
    0.0000    0.0000    0.0000 C   0  0
    0.0000    0.0000    0.0000 Cl  0  0
  1  2  1  0
  2  3  1  0
  3  4  1  0
  3  5  1  0
  5  6  1  0
  5  7  1  0
  7  8  1  0
  7  9  1  0
  9 10  1  0
  9 11  1  0
 11  2  1  0
 11 12  1  0
M  END
> <Name>
LINDANE

> <SMILES>
ClC1C(Cl)C(Cl)C(Cl)C(Cl)C1Cl

> <Reference>
NTP/TR-14

> <Id>
58-89-9

> <Actual Value>
NEG

> <Predicted Value>
0.000 NEG

> <Used>
1

> <Status>
Non-Carcinogen

> <iscarc>
0

$$$$
p;p'-ETHYL-DDD
  SciTegic06161615512D

 20 21  0  0  0  0            999 V2000
    0.0000    0.0000    0.0000 C   0  0
    0.0000    0.0000    0.0000 C   0  0
    0.0000    0.0000    0.0000 C   0  0
    0.0000    0.0000    0.0000 C   0  0
    0.0000    0.0000    0.0000 C   0  0
    0.0000    0.0000    0.0000 C   0  0
    0.0000    0.0000    0.0000 C   0  0
    0.0000    0.0000    0.0000 C   0  0
    0.0000    0.0000    0.0000 C   0  0
    0.0000    0.0000    0.0000 C   0  0
    0.0000    0.0000    0.0000 Cl  0  0
    0.0000    0.0000    0.0000 Cl  0  0
    0.0000    0.0000    0.0000 C   0  0
    0.0000    0.0000    0.0000 C   0  0
    0.0000    0.0000    0.0000 C   0  0
    0.0000    0.0000    0.0000 C   0  0
    0.0000    0.0000    0.0000 C   0  0
    0.0000    0.0000    0.0000 C   0  0
    0.0000    0.0000    0.0000 C   0  0
    0.0000    0.0000    0.0000 C   0  0
  1  2  1  0
  2  3  1  0
  3  4  2  3
  4  5  1  0
  5  6  2  3
  6  7  1  0
  7  8  2  3
  8  3  1  0
  6  9  1  0
  9 10  1  0
 10 11  1  0
 10 12  1  0
  9 13  1  0
 13 14  2  3
 14 15  1  0
 15 16  2  3
 16 17  1  0
 17 18  1  0
 16 19  1  0
 19 20  2  3
 20 13  1  0
M  END
> <Name>
p;p'-ETHYL-DDD

> <SMILES>
CCc1ccc(cc1)C(C(Cl)Cl)c2ccc(CC)cc2

> <Reference>
NTP/TR-156

> <Id>
72-56-0

> <Actual Value>
NEG

> <Predicted Value>
0.000 NEG

> <Used>
1

> <Status>
Non-Carcinogen

> <iscarc>
0

$$$$
1;2;3-TRICHLOROPROPANE
  SciTegic06161615512D

  6  5  0  0  0  0            999 V2000
    0.0000    0.0000    0.0000 Cl  0  0
    0.0000    0.0000    0.0000 C   0  0
    0.0000    0.0000    0.0000 C   0  0
    0.0000    0.0000    0.0000 Cl  0  0
    0.0000    0.0000    0.0000 C   0  0
    0.0000    0.0000    0.0000 Cl  0  0
  1  2  1  0
  2  3  1  0
  3  4  1  0
  3  5  1  0
  5  6  1  0
M  END
> <Name>
1;2;3-TRICHLOROPROPANE

> <SMILES>
ClCC(Cl)CCl

> <Reference>
NTP/TR-384

> <Id>
96-18-4

> <Actual Value>
POS

> <Predicted Value>
1.000 POS

> <Used>
1

> <Status>
Carcinogen

> <iscarc>
1

$$$$
PROMETHAZINE.HCL
  SciTegic06161615512D

 20 22  0  0  0  0            999 V2000
    0.0000    0.0000    0.0000 C   0  0
    0.0000    0.0000    0.0000 C   0  0
    0.0000    0.0000    0.0000 C   0  0
    0.0000    0.0000    0.0000 N   0  0
    0.0000    0.0000    0.0000 C   0  0
    0.0000    0.0000    0.0000 C   0  0
    0.0000    0.0000    0.0000 C   0  0
    0.0000    0.0000    0.0000 C   0  0
    0.0000    0.0000    0.0000 C   0  0
    0.0000    0.0000    0.0000 C   0  0
    0.0000    0.0000    0.0000 S   0  0
    0.0000    0.0000    0.0000 C   0  0
    0.0000    0.0000    0.0000 C   0  0
    0.0000    0.0000    0.0000 C   0  0
    0.0000    0.0000    0.0000 C   0  0
    0.0000    0.0000    0.0000 C   0  0
    0.0000    0.0000    0.0000 C   0  0
    0.0000    0.0000    0.0000 N   0  0
    0.0000    0.0000    0.0000 C   0  0
    0.0000    0.0000    0.0000 C   0  0
  1  2  1  0
  2  3  1  0
  3  4  1  0
  4  5  1  0
  5  6  2  3
  6  7  1  0
  7  8  2  3
  8  9  1  0
  9 10  2  3
 10  5  1  0
 10 11  1  0
 11 12  1  0
 12 13  2  3
 13 14  1  0
 14 15  2  3
 15 16  1  0
 16 17  2  3
 17  4  1  0
 17 12  1  0
  2 18  1  0
 18 19  1  0
 18 20  1  0
M  END
> <Name>
PROMETHAZINE.HCL

> <SMILES>
CC(CN2c1ccccc1Sc3ccccc23)N(C)C

> <Reference>
NTP/TR-425

> <Id>
58-33-3

> <Actual Value>
NEG

> <Predicted Value>
0.000 NEG

> <Used>
1

> <Status>
Non-Carcinogen

> <iscarc>
0

$$$$
DIMETHYLVINYL CHLORIDE
  SciTegic06161615512D

  5  4  0  0  0  0            999 V2000
    0.0000    0.0000    0.0000 C   0  0
    0.0000    0.0000    0.0000 C   0  0
    0.0000    0.0000    0.0000 C   0  0
    0.0000    0.0000    0.0000 C   0  0
    0.0000    0.0000    0.0000 Cl  0  0
  1  2  1  0
  2  3  1  0
  2  4  2  3
  4  5  1  0
M  END
> <Name>
DIMETHYLVINYL CHLORIDE

> <SMILES>
CC(C)=CCl

> <Reference>
NTP/TR-316

> <Id>
513-37-1

> <Actual Value>
POS

> <Predicted Value>
1.000 POS

> <Used>
1

> <Status>
Carcinogen

> <iscarc>
1

$$$$
C.I.PIGMENT RED 3
  SciTegic06161615512D

 23 25  0  0  0  0            999 V2000
    0.0000    0.0000    0.0000 C   0  0
    0.0000    0.0000    0.0000 C   0  0
    0.0000    0.0000    0.0000 C   0  0
    0.0000    0.0000    0.0000 C   0  0
    0.0000    0.0000    0.0000 C   0  0
    0.0000    0.0000    0.0000 N   0  0
    0.0000    0.0000    0.0000 N   0  0
    0.0000    0.0000    0.0000 C   0  0
    0.0000    0.0000    0.0000 C   0  0
    0.0000    0.0000    0.0000 O   0  0
    0.0000    0.0000    0.0000 C   0  0
    0.0000    0.0000    0.0000 C   0  0
    0.0000    0.0000    0.0000 C   0  0
    0.0000    0.0000    0.0000 C   0  0
    0.0000    0.0000    0.0000 C   0  0
    0.0000    0.0000    0.0000 C   0  0
    0.0000    0.0000    0.0000 C   0  0
    0.0000    0.0000    0.0000 C   0  0
    0.0000    0.0000    0.0000 C   0  0
    0.0000    0.0000    0.0000 C   0  0
    0.0000    0.0000    0.0000 N   0  0
    0.0000    0.0000    0.0000 O   0  0
    0.0000    0.0000    0.0000 O   0  0
  1  2  1  0
  2  3  2  3
  3  4  1  0
  4  5  2  3
  5  6  1  0
  6  7  2  3
  7  8  1  0
  8  9  2  3
  9 10  1  0
  9 11  1  0
 11 12  2  3
 12 13  1  0
 13 14  2  3
 14 15  1  0
 15 16  2  3
 16 17  1  0
 17 18  2  3
 18  8  1  0
 18 13  1  0
  5 19  1  0
 19 20  2  3
 20  2  1  0
 19 21  1  0
 21 22  2  0
 21 23  2  0
M  END
> <Name>
C.I.PIGMENT RED 3

> <SMILES>
Cc3ccc(N=Nc1c(O)ccc2ccccc12)c(c3)N(=O)=O

> <Reference>
NTP/TR-407

> <Id>
2425-85-6

> <Actual Value>
POS

> <Predicted Value>
0.998 POS

> <Used>
1

> <Status>
Carcinogen

> <CanonicalTautomer>
Yes

> <NumberOfTautomers>
2

> <iscarc>
1

$$$$
AZINPHOSMETHYL
  SciTegic06161615512D

 19 20  0  0  0  0            999 V2000
    0.0000    0.0000    0.0000 C   0  0
    0.0000    0.0000    0.0000 O   0  0
    0.0000    0.0000    0.0000 P   0  0
    0.0000    0.0000    0.0000 S   0  0
    0.0000    0.0000    0.0000 O   0  0
    0.0000    0.0000    0.0000 C   0  0
    0.0000    0.0000    0.0000 S   0  0
    0.0000    0.0000    0.0000 C   0  0
    0.0000    0.0000    0.0000 N   0  0
    0.0000    0.0000    0.0000 N   0  0
    0.0000    0.0000    0.0000 N   0  0
    0.0000    0.0000    0.0000 C   0  0
    0.0000    0.0000    0.0000 C   0  0
    0.0000    0.0000    0.0000 C   0  0
    0.0000    0.0000    0.0000 C   0  0
    0.0000    0.0000    0.0000 C   0  0
    0.0000    0.0000    0.0000 C   0  0
    0.0000    0.0000    0.0000 C   0  0
    0.0000    0.0000    0.0000 O   0  0
  1  2  1  0
  2  3  1  0
  3  4  2  0
  3  5  1  0
  5  6  1  0
  3  7  1  0
  7  8  1  0
  8  9  1  0
  9 10  1  0
 10 11  2  3
 11 12  1  0
 12 13  2  3
 13 14  1  0
 14 15  2  3
 15 16  1  0
 16 17  2  3
 17 12  1  0
 17 18  1  0
 18  9  1  0
 18 19  2  0
M  END
> <Name>
AZINPHOSMETHYL

> <SMILES>
COP(=S)(OC)SCn2nnc1ccccc1c2=O

> <Reference>
NTP/TR-69

> <Id>
86-50-0

> <Actual Value>
NEG

> <Predicted Value>
0.000 NEG

> <Used>
1

> <Status>
Non-Carcinogen

> <iscarc>
0

$$$$
FURAN
  SciTegic06161615512D

  5  5  0  0  0  0            999 V2000
    0.0000    0.0000    0.0000 C   0  0
    0.0000    0.0000    0.0000 C   0  0
    0.0000    0.0000    0.0000 C   0  0
    0.0000    0.0000    0.0000 O   0  0
    0.0000    0.0000    0.0000 C   0  0
  1  2  1  0
  2  3  2  3
  3  4  1  0
  4  5  1  0
  5  1  2  3
M  END
> <Name>
FURAN

> <SMILES>
c1ccoc1

> <Reference>
NTP/TR-402

> <Id>
110-00-9

> <Actual Value>
POS

> <Predicted Value>
1.000 POS

> <Used>
1

> <Status>
Carcinogen

> <iscarc>
1

$$$$
DIBENZO-p-DIOXIN
  SciTegic06161615512D

 14 16  0  0  0  0            999 V2000
    0.0000    0.0000    0.0000 O   0  0
    0.0000    0.0000    0.0000 C   0  0
    0.0000    0.0000    0.0000 C   0  0
    0.0000    0.0000    0.0000 C   0  0
    0.0000    0.0000    0.0000 C   0  0
    0.0000    0.0000    0.0000 C   0  0
    0.0000    0.0000    0.0000 C   0  0
    0.0000    0.0000    0.0000 O   0  0
    0.0000    0.0000    0.0000 C   0  0
    0.0000    0.0000    0.0000 C   0  0
    0.0000    0.0000    0.0000 C   0  0
    0.0000    0.0000    0.0000 C   0  0
    0.0000    0.0000    0.0000 C   0  0
    0.0000    0.0000    0.0000 C   0  0
  1  2  1  0
  2  3  2  3
  3  4  1  0
  4  5  2  3
  5  6  1  0
  6  7  2  3
  7  2  1  0
  7  8  1  0
  8  9  1  0
  9 10  2  3
 10 11  1  0
 11 12  2  3
 12 13  1  0
 13 14  2  3
 14  1  1  0
 14  9  1  0
M  END
> <Name>
DIBENZO-p-DIOXIN

> <SMILES>
O2c1ccccc1Oc3ccccc23

> <Reference>
NTP/TR-122

> <Id>
262-12-4

> <Actual Value>
NEG

> <Predicted Value>
0.000 NEG

> <Used>
1

> <Status>
Non-Carcinogen

> <iscarc>
0

$$$$
6-NITROBENZIMIDAZOLE
  SciTegic06161615512D

 12 13  0  0  0  0            999 V2000
    0.0000    0.0000    0.0000 O   0  0
    0.0000    0.0000    0.0000 N   0  0
    0.0000    0.0000    0.0000 O   0  0
    0.0000    0.0000    0.0000 C   0  0
    0.0000    0.0000    0.0000 C   0  0
    0.0000    0.0000    0.0000 C   0  0
    0.0000    0.0000    0.0000 C   0  0
    0.0000    0.0000    0.0000 N   0  0
    0.0000    0.0000    0.0000 C   0  0
    0.0000    0.0000    0.0000 N   0  0
    0.0000    0.0000    0.0000 C   0  0
    0.0000    0.0000    0.0000 C   0  0
  1  2  2  0
  2  3  2  0
  2  4  1  0
  4  5  2  3
  5  6  1  0
  6  7  2  3
  7  8  1  0
  8  9  1  0
  9 10  2  3
 10 11  1  0
 11  7  1  0
 11 12  2  3
 12  4  1  0
M  END
> <Name>
6-NITROBENZIMIDAZOLE

> <SMILES>
O=N(=O)c2ccc1nc[nH]c1c2

> <Reference>
NTP/TR-117

> <Id>
94-52-0

> <Actual Value>
POS

> <Predicted Value>
1.000 POS

> <Used>
1

> <Status>
Carcinogen

> <CanonicalTautomer>
Yes

> <NumberOfTautomers>
2

> <iscarc>
1

$$$$
MEXACARBATE
  SciTegic06161615512D

 16 16  0  0  0  0            999 V2000
    0.0000    0.0000    0.0000 C   0  0
    0.0000    0.0000    0.0000 N   0  0
    0.0000    0.0000    0.0000 C   0  0
    0.0000    0.0000    0.0000 O   0  0
    0.0000    0.0000    0.0000 O   0  0
    0.0000    0.0000    0.0000 C   0  0
    0.0000    0.0000    0.0000 C   0  0
    0.0000    0.0000    0.0000 C   0  0
    0.0000    0.0000    0.0000 C   0  0
    0.0000    0.0000    0.0000 C   0  0
    0.0000    0.0000    0.0000 N   0  0
    0.0000    0.0000    0.0000 C   0  0
    0.0000    0.0000    0.0000 C   0  0
    0.0000    0.0000    0.0000 C   0  0
    0.0000    0.0000    0.0000 C   0  0
    0.0000    0.0000    0.0000 C   0  0
  1  2  1  0
  2  3  1  0
  3  4  2  0
  3  5  1  0
  5  6  1  0
  6  7  2  3
  7  8  1  0
  8  9  1  0
  8 10  2  3
 10 11  1  0
 11 12  1  0
 11 13  1  0
 10 14  1  0
 14 15  1  0
 14 16  2  3
 16  6  1  0
M  END
> <Name>
MEXACARBATE

> <SMILES>
CNC(=O)Oc1cc(C)c(N(C)C)c(C)c1

> <Reference>
NTP/TR-147

> <Id>
315-18-4

> <Actual Value>
NEG

> <Predicted Value>
0.001 NEG

> <Used>
1

> <Status>
Non-Carcinogen

> <iscarc>
0

$$$$
OXAZEPAM
  SciTegic06161615512D

 20 22  0  0  0  0            999 V2000
    0.0000    0.0000    0.0000 O   0  0
    0.0000    0.0000    0.0000 C   0  0
    0.0000    0.0000    0.0000 N   0  0
    0.0000    0.0000    0.0000 C   0  0
    0.0000    0.0000    0.0000 C   0  0
    0.0000    0.0000    0.0000 C   0  0
    0.0000    0.0000    0.0000 C   0  0
    0.0000    0.0000    0.0000 C   0  0
    0.0000    0.0000    0.0000 C   0  0
    0.0000    0.0000    0.0000 C   0  0
    0.0000    0.0000    0.0000 C   0  0
    0.0000    0.0000    0.0000 C   0  0
    0.0000    0.0000    0.0000 C   0  0
    0.0000    0.0000    0.0000 Cl  0  0
    0.0000    0.0000    0.0000 C   0  0
    0.0000    0.0000    0.0000 C   0  0
    0.0000    0.0000    0.0000 C   0  0
    0.0000    0.0000    0.0000 N   0  0
    0.0000    0.0000    0.0000 C   0  0
    0.0000    0.0000    0.0000 O   0  0
  1  2  1  0
  2  3  1  0
  3  4  1  0
  4  5  1  0
  5  6  2  3
  6  7  1  0
  7  8  2  3
  8  9  1  0
  9 10  2  3
 10  5  1  0
  4 11  1  0
 11 12  2  3
 12 13  1  0
 13 14  1  0
 13 15  2  3
 15 16  1  0
 16 17  2  3
 17 11  1  0
 17 18  1  0
 18 19  1  0
 19  2  1  0
 19 20  2  0
M  END
> <Name>
OXAZEPAM

> <SMILES>
OC3NC(c1ccccc1)c2cc(Cl)ccc2NC3=O

> <Reference>
NTP/TR-443

> <Id>
604-75-1

> <Actual Value>
POS

> <Predicted Value>
1.000 POS

> <Used>
1

> <Status>
Carcinogen

> <CanonicalTautomer>
Yes

> <NumberOfTautomers>
2

> <iscarc>
1

$$$$
4;4'-DIAMINO-2;2'-STILBENEDISULFONIC ACID.2NaSALT
  SciTegic06161615512D

 24 25  0  0  0  0            999 V2000
    0.0000    0.0000    0.0000 N   0  0
    0.0000    0.0000    0.0000 C   0  0
    0.0000    0.0000    0.0000 C   0  0
    0.0000    0.0000    0.0000 C   0  0
    0.0000    0.0000    0.0000 C   0  0
    0.0000    0.0000    0.0000 C   0  0
    0.0000    0.0000    0.0000 C   0  0
    0.0000    0.0000    0.0000 C   0  0
    0.0000    0.0000    0.0000 C   0  0
    0.0000    0.0000    0.0000 C   0  0
    0.0000    0.0000    0.0000 C   0  0
    0.0000    0.0000    0.0000 N   0  0
    0.0000    0.0000    0.0000 C   0  0
    0.0000    0.0000    0.0000 C   0  0
    0.0000    0.0000    0.0000 S   0  0
    0.0000    0.0000    0.0000 O   0  0
    0.0000    0.0000    0.0000 O   0  0
    0.0000    0.0000    0.0000 O   0  0
    0.0000    0.0000    0.0000 C   0  0
    0.0000    0.0000    0.0000 C   0  0
    0.0000    0.0000    0.0000 S   0  0
    0.0000    0.0000    0.0000 O   0  0
    0.0000    0.0000    0.0000 O   0  0
    0.0000    0.0000    0.0000 O   0  0
  1  2  1  0
  2  3  2  3
  3  4  1  0
  4  5  2  3
  5  6  1  0
  6  7  2  3
  7  8  1  0
  8  9  2  3
  9 10  1  0
 10 11  2  3
 11 12  1  0
 11 13  1  0
 13 14  2  3
 14  8  1  0
 14 15  1  0
 15 16  1  0
 15 17  2  0
 15 18  2  0
  5 19  1  0
 19 20  2  3
 20  2  1  0
 19 21  1  0
 21 22  1  0
 21 23  2  0
 21 24  2  0
M  END
> <Name>
4;4'-DIAMINO-2;2'-STILBENEDISULFONIC ACID.2NaSALT

> <SMILES>
Nc2ccc(C=Cc1ccc(N)cc1S(O)(=O)=O)c(c2)S(O)(=O)=O

> <Reference>
NTP/TR-412

> <Id>
7336-20-1

> <Actual Value>
NEG

> <Predicted Value>
0.000 NEG

> <Used>
1

> <Status>
Non-Carcinogen

> <iscarc>
0

$$$$
CHLOROPICRIN
  SciTegic06161615512D

  7  6  0  0  0  0            999 V2000
    0.0000    0.0000    0.0000 Cl  0  0
    0.0000    0.0000    0.0000 C   0  0
    0.0000    0.0000    0.0000 Cl  0  0
    0.0000    0.0000    0.0000 Cl  0  0
    0.0000    0.0000    0.0000 N   0  0
    0.0000    0.0000    0.0000 O   0  0
    0.0000    0.0000    0.0000 O   0  0
  1  2  1  0
  2  3  1  0
  2  4  1  0
  2  5  1  0
  5  6  2  0
  5  7  2  0
M  END
> <Name>
CHLOROPICRIN

> <SMILES>
ClC(Cl)(Cl)N(=O)=O

> <Reference>
NTP/TR-65

> <Id>
76-06-2

> <Actual Value>
NEG

> <Predicted Value>
0.001 NEG

> <Used>
1

> <Status>
Non-Carcinogen

> <iscarc>
0

$$$$
HEXACHLOROCYCLOPENTADIENE
  SciTegic06161615512D

 11 11  0  0  0  0            999 V2000
    0.0000    0.0000    0.0000 Cl  0  0
    0.0000    0.0000    0.0000 C   0  0
    0.0000    0.0000    0.0000 C   0  0
    0.0000    0.0000    0.0000 Cl  0  0
    0.0000    0.0000    0.0000 C   0  0
    0.0000    0.0000    0.0000 Cl  0  0
    0.0000    0.0000    0.0000 Cl  0  0
    0.0000    0.0000    0.0000 C   0  0
    0.0000    0.0000    0.0000 C   0  0
    0.0000    0.0000    0.0000 Cl  0  0
    0.0000    0.0000    0.0000 Cl  0  0
  1  2  1  0
  2  3  2  3
  3  4  1  0
  3  5  1  0
  5  6  1  0
  5  7  1  0
  5  8  1  0
  8  9  2  3
  9  2  1  0
  9 10  1  0
  8 11  1  0
M  END
> <Name>
HEXACHLOROCYCLOPENTADIENE

> <SMILES>
ClC1=C(Cl)C(Cl)(Cl)C(=C1Cl)Cl

> <Reference>
NTP/TR-437

> <Id>
77-47-4

> <Actual Value>
NEG

> <Predicted Value>
0.000 NEG

> <Used>
1

> <Status>
Non-Carcinogen

> <iscarc>
0

$$$$
3-SULFOLENE
  SciTegic06161615512D

  7  7  0  0  0  0            999 V2000
    0.0000    0.0000    0.0000 O   0  0
    0.0000    0.0000    0.0000 S   0  0
    0.0000    0.0000    0.0000 O   0  0
    0.0000    0.0000    0.0000 C   0  0
    0.0000    0.0000    0.0000 C   0  0
    0.0000    0.0000    0.0000 C   0  0
    0.0000    0.0000    0.0000 C   0  0
  1  2  2  0
  2  3  2  0
  2  4  1  0
  4  5  1  0
  5  6  2  3
  6  7  1  0
  7  2  1  0
M  END
> <Name>
3-SULFOLENE

> <SMILES>
O=S1(=O)CC=CC1

> <Reference>
NTP/TR-102

> <Id>
77-79-2

> <Actual Value>
NEG

> <Predicted Value>
0.000 NEG

> <Used>
1

> <Status>
Non-Carcinogen

> <iscarc>
0

$$$$
p-NITROBENZOIC ACID
  SciTegic06161615512D

 12 12  0  0  0  0            999 V2000
    0.0000    0.0000    0.0000 O   0  0
    0.0000    0.0000    0.0000 C   0  0
    0.0000    0.0000    0.0000 O   0  0
    0.0000    0.0000    0.0000 C   0  0
    0.0000    0.0000    0.0000 C   0  0
    0.0000    0.0000    0.0000 C   0  0
    0.0000    0.0000    0.0000 C   0  0
    0.0000    0.0000    0.0000 C   0  0
    0.0000    0.0000    0.0000 C   0  0
    0.0000    0.0000    0.0000 N   0  0
    0.0000    0.0000    0.0000 O   0  0
    0.0000    0.0000    0.0000 O   0  0
  1  2  1  0
  2  3  2  0
  2  4  1  0
  4  5  2  3
  5  6  1  0
  6  7  2  3
  7  8  1  0
  8  9  2  3
  9  4  1  0
  7 10  1  0
 10 11  2  0
 10 12  2  0
M  END
> <Name>
p-NITROBENZOIC ACID

> <SMILES>
OC(=O)c1ccc(cc1)N(=O)=O

> <Reference>
NTP/TR-442

> <Id>
62-23-7

> <Actual Value>
NEG

> <Predicted Value>
0.000 NEG

> <Used>
1

> <Status>
Non-Carcinogen

> <iscarc>
0

$$$$
1;2-EPOXYBUTANE
  SciTegic06161615512D

  5  5  0  0  0  0            999 V2000
    0.0000    0.0000    0.0000 C   0  0
    0.0000    0.0000    0.0000 C   0  0
    0.0000    0.0000    0.0000 C   0  0
    0.0000    0.0000    0.0000 C   0  0
    0.0000    0.0000    0.0000 O   0  0
  1  2  1  0
  2  3  1  0
  3  4  1  0
  4  5  1  0
  5  3  1  0
M  END
> <Name>
1;2-EPOXYBUTANE

> <SMILES>
CCC1CO1

> <Reference>
NTP/TR-329

> <Id>
106-88-7

> <Actual Value>
NEG

> <Predicted Value>
0.000 NEG

> <Used>
1

> <Status>
Non-Carcinogen

> <iscarc>
0

$$$$
P-NITROSODIPHENYLAMINE
  SciTegic06161615512D

 15 16  0  0  0  0            999 V2000
    0.0000    0.0000    0.0000 O   0  0
    0.0000    0.0000    0.0000 N   0  0
    0.0000    0.0000    0.0000 C   0  0
    0.0000    0.0000    0.0000 C   0  0
    0.0000    0.0000    0.0000 C   0  0
    0.0000    0.0000    0.0000 C   0  0
    0.0000    0.0000    0.0000 N   0  0
    0.0000    0.0000    0.0000 C   0  0
    0.0000    0.0000    0.0000 C   0  0
    0.0000    0.0000    0.0000 C   0  0
    0.0000    0.0000    0.0000 C   0  0
    0.0000    0.0000    0.0000 C   0  0
    0.0000    0.0000    0.0000 C   0  0
    0.0000    0.0000    0.0000 C   0  0
    0.0000    0.0000    0.0000 C   0  0
  1  2  2  0
  2  3  1  0
  3  4  2  3
  4  5  1  0
  5  6  2  3
  6  7  1  0
  7  8  1  0
  8  9  2  3
  9 10  1  0
 10 11  2  3
 11 12  1  0
 12 13  2  3
 13  8  1  0
  6 14  1  0
 14 15  2  3
 15  3  1  0
M  END
> <Name>
P-NITROSODIPHENYLAMINE

> <SMILES>
O=Nc2ccc(Nc1ccccc1)cc2

> <Reference>
NTP/TR-190

> <Id>
156-10-5

> <Actual Value>
POS

> <Predicted Value>
1.000 POS

> <Used>
1

> <Status>
Carcinogen

> <CanonicalTautomer>
Yes

> <NumberOfTautomers>
2

> <iscarc>
1

$$$$
TETRANITROMETHANE
  SciTegic06161615512D

 13 12  0  0  0  0            999 V2000
    0.0000    0.0000    0.0000 O   0  0
    0.0000    0.0000    0.0000 N   0  0
    0.0000    0.0000    0.0000 O   0  0
    0.0000    0.0000    0.0000 C   0  0
    0.0000    0.0000    0.0000 N   0  0
    0.0000    0.0000    0.0000 O   0  0
    0.0000    0.0000    0.0000 O   0  0
    0.0000    0.0000    0.0000 N   0  0
    0.0000    0.0000    0.0000 O   0  0
    0.0000    0.0000    0.0000 O   0  0
    0.0000    0.0000    0.0000 N   0  0
    0.0000    0.0000    0.0000 O   0  0
    0.0000    0.0000    0.0000 O   0  0
  1  2  2  0
  2  3  2  0
  2  4  1  0
  4  5  1  0
  5  6  2  0
  5  7  2  0
  4  8  1  0
  8  9  2  0
  8 10  2  0
  4 11  1  0
 11 12  2  0
 11 13  2  0
M  END
> <Name>
TETRANITROMETHANE

> <SMILES>
O=N(=O)C(N(=O)=O)(N(=O)=O)N(=O)=O

> <Reference>
NTP/TR-386

> <Id>
509-14-8

> <Actual Value>
POS

> <Predicted Value>
1.000 POS

> <Used>
1

> <Status>
Carcinogen

> <iscarc>
1

$$$$
TETRACHLORVINPHOS
  SciTegic06161615512D

 19 19  0  0  0  0            999 V2000
    0.0000    0.0000    0.0000 C   0  0
    0.0000    0.0000    0.0000 O   0  0
    0.0000    0.0000    0.0000 P   0  0
    0.0000    0.0000    0.0000 O   0  0
    0.0000    0.0000    0.0000 O   0  0
    0.0000    0.0000    0.0000 C   0  0
    0.0000    0.0000    0.0000 O   0  0
    0.0000    0.0000    0.0000 C   0  0
    0.0000    0.0000    0.0000 C   0  0
    0.0000    0.0000    0.0000 Cl  0  0
    0.0000    0.0000    0.0000 C   0  0
    0.0000    0.0000    0.0000 C   0  0
    0.0000    0.0000    0.0000 C   0  0
    0.0000    0.0000    0.0000 Cl  0  0
    0.0000    0.0000    0.0000 C   0  0
    0.0000    0.0000    0.0000 Cl  0  0
    0.0000    0.0000    0.0000 C   0  0
    0.0000    0.0000    0.0000 C   0  0
    0.0000    0.0000    0.0000 Cl  0  0
  1  2  1  0
  2  3  1  0
  3  4  2  0
  3  5  1  0
  5  6  1  0
  3  7  1  0
  7  8  1  0
  8  9  2  3
  9 10  1  0
  8 11  1  0
 11 12  2  3
 12 13  1  0
 13 14  1  0
 13 15  2  3
 15 16  1  0
 15 17  1  0
 17 18  2  3
 18 11  1  0
 18 19  1  0
M  END
> <Name>
TETRACHLORVINPHOS

> <SMILES>
COP(=O)(OC)OC(=CCl)c1cc(Cl)c(Cl)cc1Cl

> <Reference>
NTP/TR-33

> <Id>
961-11-5

> <Actual Value>
POS

> <Predicted Value>
0.978 POS

> <Used>
1

> <Status>
Carcinogen

> <iscarc>
1

$$$$
NITROFEN
  SciTegic06161615512D

 18 19  0  0  0  0            999 V2000
    0.0000    0.0000    0.0000 Cl  0  0
    0.0000    0.0000    0.0000 C   0  0
    0.0000    0.0000    0.0000 C   0  0
    0.0000    0.0000    0.0000 C   0  0
    0.0000    0.0000    0.0000 C   0  0
    0.0000    0.0000    0.0000 O   0  0
    0.0000    0.0000    0.0000 C   0  0
    0.0000    0.0000    0.0000 C   0  0
    0.0000    0.0000    0.0000 C   0  0
    0.0000    0.0000    0.0000 C   0  0
    0.0000    0.0000    0.0000 C   0  0
    0.0000    0.0000    0.0000 C   0  0
    0.0000    0.0000    0.0000 N   0  0
    0.0000    0.0000    0.0000 O   0  0
    0.0000    0.0000    0.0000 O   0  0
    0.0000    0.0000    0.0000 C   0  0
    0.0000    0.0000    0.0000 Cl  0  0
    0.0000    0.0000    0.0000 C   0  0
  1  2  1  0
  2  3  2  3
  3  4  1  0
  4  5  2  3
  5  6  1  0
  6  7  1  0
  7  8  2  3
  8  9  1  0
  9 10  2  3
 10 11  1  0
 11 12  2  3
 12  7  1  0
 10 13  1  0
 13 14  2  0
 13 15  2  0
  5 16  1  0
 16 17  1  0
 16 18  2  3
 18  2  1  0
M  END
> <Name>
NITROFEN

> <SMILES>
Clc2ccc(Oc1ccc(cc1)N(=O)=O)c(Cl)c2

> <Reference>
NTP/TR-184

> <Id>
1836-75-5

> <Actual Value>
POS

> <Predicted Value>
1.000 POS

> <Used>
1

> <Status>
Carcinogen

> <iscarc>
1

$$$$
HC YELLOW 4
  SciTegic06161615512D

 17 17  0  0  0  0            999 V2000
    0.0000    0.0000    0.0000 O   0  0
    0.0000    0.0000    0.0000 C   0  0
    0.0000    0.0000    0.0000 C   0  0
    0.0000    0.0000    0.0000 N   0  0
    0.0000    0.0000    0.0000 C   0  0
    0.0000    0.0000    0.0000 C   0  0
    0.0000    0.0000    0.0000 C   0  0
    0.0000    0.0000    0.0000 C   0  0
    0.0000    0.0000    0.0000 C   0  0
    0.0000    0.0000    0.0000 C   0  0
    0.0000    0.0000    0.0000 O   0  0
    0.0000    0.0000    0.0000 C   0  0
    0.0000    0.0000    0.0000 C   0  0
    0.0000    0.0000    0.0000 O   0  0
    0.0000    0.0000    0.0000 N   0  0
    0.0000    0.0000    0.0000 O   0  0
    0.0000    0.0000    0.0000 O   0  0
  1  2  1  0
  2  3  1  0
  3  4  1  0
  4  5  1  0
  5  6  2  3
  6  7  1  0
  7  8  2  3
  8  9  1  0
  9 10  2  3
 10  5  1  0
 10 11  1  0
 11 12  1  0
 12 13  1  0
 13 14  1  0
  8 15  1  0
 15 16  2  0
 15 17  2  0
M  END
> <Name>
HC YELLOW 4

> <SMILES>
OCCNc1ccc(cc1OCCO)N(=O)=O

> <Reference>
NTP/TR-419

> <Id>
59820-43-8

> <Actual Value>
NEG

> <Predicted Value>
0.004 NEG

> <Used>
1

> <Status>
Non-Carcinogen

> <iscarc>
0

$$$$
N-NITROSODIPHENYLAMINE
  SciTegic06161615512D

 15 16  0  0  0  0            999 V2000
    0.0000    0.0000    0.0000 O   0  0
    0.0000    0.0000    0.0000 N   0  0
    0.0000    0.0000    0.0000 N   0  0
    0.0000    0.0000    0.0000 C   0  0
    0.0000    0.0000    0.0000 C   0  0
    0.0000    0.0000    0.0000 C   0  0
    0.0000    0.0000    0.0000 C   0  0
    0.0000    0.0000    0.0000 C   0  0
    0.0000    0.0000    0.0000 C   0  0
    0.0000    0.0000    0.0000 C   0  0
    0.0000    0.0000    0.0000 C   0  0
    0.0000    0.0000    0.0000 C   0  0
    0.0000    0.0000    0.0000 C   0  0
    0.0000    0.0000    0.0000 C   0  0
    0.0000    0.0000    0.0000 C   0  0
  1  2  2  0
  2  3  1  0
  3  4  1  0
  4  5  2  3
  5  6  1  0
  6  7  2  3
  7  8  1  0
  8  9  2  3
  9  4  1  0
  3 10  1  0
 10 11  2  3
 11 12  1  0
 12 13  2  3
 13 14  1  0
 14 15  2  3
 15 10  1  0
M  END
> <Name>
N-NITROSODIPHENYLAMINE

> <SMILES>
O=NN(c1ccccc1)c2ccccc2

> <Reference>
NTP/TR-164

> <Id>
86-30-6

> <Actual Value>
NEG

> <Predicted Value>
0.000 NEG

> <Used>
1

> <Status>
Non-Carcinogen

> <iscarc>
0

$$$$
BROMODICHLOROMETHANE
  SciTegic06161615512D

  4  3  0  0  0  0            999 V2000
    0.0000    0.0000    0.0000 Cl  0  0
    0.0000    0.0000    0.0000 C   0  0
    0.0000    0.0000    0.0000 Cl  0  0
    0.0000    0.0000    0.0000 Br  0  0
  1  2  1  0
  2  3  1  0
  2  4  1  0
M  END
> <Name>
BROMODICHLOROMETHANE

> <SMILES>
ClC(Cl)Br

> <Reference>
NTP/TR-321

> <Id>
75-27-4

> <Actual Value>
POS

> <Predicted Value>
0.907 POS

> <Used>
1

> <Status>
Carcinogen

> <iscarc>
1

$$$$
PENTACHLOROANISOLE
  SciTegic06161615512D

 13 13  0  0  0  0            999 V2000
    0.0000    0.0000    0.0000 C   0  0
    0.0000    0.0000    0.0000 O   0  0
    0.0000    0.0000    0.0000 C   0  0
    0.0000    0.0000    0.0000 C   0  0
    0.0000    0.0000    0.0000 Cl  0  0
    0.0000    0.0000    0.0000 C   0  0
    0.0000    0.0000    0.0000 Cl  0  0
    0.0000    0.0000    0.0000 C   0  0
    0.0000    0.0000    0.0000 Cl  0  0
    0.0000    0.0000    0.0000 C   0  0
    0.0000    0.0000    0.0000 Cl  0  0
    0.0000    0.0000    0.0000 C   0  0
    0.0000    0.0000    0.0000 Cl  0  0
  1  2  1  0
  2  3  1  0
  3  4  2  3
  4  5  1  0
  4  6  1  0
  6  7  1  0
  6  8  2  3
  8  9  1  0
  8 10  1  0
 10 11  1  0
 10 12  2  3
 12  3  1  0
 12 13  1  0
M  END
> <Name>
PENTACHLOROANISOLE

> <SMILES>
COc1c(Cl)c(Cl)c(Cl)c(Cl)c1Cl

> <Reference>
NTP/TR-414

> <Id>
1825-21-4

> <Actual Value>
POS

> <Predicted Value>
1.000 POS

> <Used>
1

> <Status>
Carcinogen

> <iscarc>
1

$$$$
C.I.ORANGE 3
  SciTegic06161615512D

 30 32  0  0  0  0            999 V2000
    0.0000    0.0000    0.0000 O   0  0
    0.0000    0.0000    0.0000 S   0  0
    0.0000    0.0000    0.0000 O   0  0
    0.0000    0.0000    0.0000 O   0  0
    0.0000    0.0000    0.0000 C   0  0
    0.0000    0.0000    0.0000 C   0  0
    0.0000    0.0000    0.0000 C   0  0
    0.0000    0.0000    0.0000 N   0  0
    0.0000    0.0000    0.0000 C   0  0
    0.0000    0.0000    0.0000 C   0  0
    0.0000    0.0000    0.0000 C   0  0
    0.0000    0.0000    0.0000 C   0  0
    0.0000    0.0000    0.0000 C   0  0
    0.0000    0.0000    0.0000 C   0  0
    0.0000    0.0000    0.0000 N   0  0
    0.0000    0.0000    0.0000 O   0  0
    0.0000    0.0000    0.0000 O   0  0
    0.0000    0.0000    0.0000 N   0  0
    0.0000    0.0000    0.0000 O   0  0
    0.0000    0.0000    0.0000 O   0  0
    0.0000    0.0000    0.0000 C   0  0
    0.0000    0.0000    0.0000 C   0  0
    0.0000    0.0000    0.0000 C   0  0
    0.0000    0.0000    0.0000 N   0  0
    0.0000    0.0000    0.0000 C   0  0
    0.0000    0.0000    0.0000 C   0  0
    0.0000    0.0000    0.0000 C   0  0
    0.0000    0.0000    0.0000 C   0  0
    0.0000    0.0000    0.0000 C   0  0
    0.0000    0.0000    0.0000 C   0  0
  1  2  1  0
  2  3  2  0
  2  4  2  0
  2  5  1  0
  5  6  2  3
  6  7  1  0
  7  8  1  0
  8  9  1  0
  9 10  2  3
 10 11  1  0
 11 12  2  3
 12 13  1  0
 13 14  2  3
 14  9  1  0
 14 15  1  0
 15 16  2  0
 15 17  2  0
 12 18  1  0
 18 19  2  0
 18 20  2  0
  7 21  2  3
 21 22  1  0
 22 23  2  3
 23  5  1  0
 23 24  1  0
 24 25  1  0
 25 26  2  3
 26 27  1  0
 27 28  2  3
 28 29  1  0
 29 30  2  3
 30 25  1  0
M  END
> <Name>
C.I.ORANGE 3

> <SMILES>
OS(=O)(=O)c2cc(Nc1ccc(cc1N(=O)=O)N(=O)=O)ccc2Nc3ccccc3

> <Reference>
NTP/TR-335

> <Id>
6373-74-6

> <Actual Value>
NEG

> <Predicted Value>
0.000 NEG

> <Used>
1

> <Status>
Non-Carcinogen

> <iscarc>
0

$$$$
4-NITROANTHRANILIC ACID
  SciTegic06161615512D

 13 13  0  0  0  0            999 V2000
    0.0000    0.0000    0.0000 N   0  0
    0.0000    0.0000    0.0000 C   0  0
    0.0000    0.0000    0.0000 C   0  0
    0.0000    0.0000    0.0000 C   0  0
    0.0000    0.0000    0.0000 C   0  0
    0.0000    0.0000    0.0000 C   0  0
    0.0000    0.0000    0.0000 C   0  0
    0.0000    0.0000    0.0000 C   0  0
    0.0000    0.0000    0.0000 O   0  0
    0.0000    0.0000    0.0000 O   0  0
    0.0000    0.0000    0.0000 N   0  0
    0.0000    0.0000    0.0000 O   0  0
    0.0000    0.0000    0.0000 O   0  0
  1  2  1  0
  2  3  2  3
  3  4  1  0
  4  5  2  3
  5  6  1  0
  6  7  2  3
  7  2  1  0
  7  8  1  0
  8  9  1  0
  8 10  2  0
  4 11  1  0
 11 12  2  0
 11 13  2  0
M  END
> <Name>
4-NITROANTHRANILIC ACID

> <SMILES>
Nc1cc(ccc1C(O)=O)N(=O)=O

> <Reference>
NTP/TR-109

> <Id>
619-17-0

> <Actual Value>
NEG

> <Predicted Value>
0.000 NEG

> <Used>
1

> <Status>
Non-Carcinogen

> <iscarc>
0

$$$$
COUMARIN
  SciTegic06161615512D

 11 12  0  0  0  0            999 V2000
    0.0000    0.0000    0.0000 O   0  0
    0.0000    0.0000    0.0000 C   0  0
    0.0000    0.0000    0.0000 C   0  0
    0.0000    0.0000    0.0000 C   0  0
    0.0000    0.0000    0.0000 C   0  0
    0.0000    0.0000    0.0000 C   0  0
    0.0000    0.0000    0.0000 C   0  0
    0.0000    0.0000    0.0000 C   0  0
    0.0000    0.0000    0.0000 C   0  0
    0.0000    0.0000    0.0000 C   0  0
    0.0000    0.0000    0.0000 O   0  0
  1  2  2  0
  2  3  1  0
  3  4  2  3
  4  5  1  0
  5  6  2  3
  6  7  1  0
  7  8  2  3
  8  9  1  0
  9 10  2  3
 10  5  1  0
 10 11  1  0
 11  2  1  0
M  END
> <Name>
COUMARIN

> <SMILES>
O=c2ccc1ccccc1o2

> <Reference>
NTP/TR-422

> <Id>
91-64-5

> <Actual Value>
POS

> <Predicted Value>
1.000 POS

> <Used>
1

> <Status>
Carcinogen

> <iscarc>
1

$$$$
4;4'-THIOBIS(6-t-BUTYL-m-CRESOL)
  SciTegic06161615512D

 25 26  0  0  0  0            999 V2000
    0.0000    0.0000    0.0000 C   0  0
    0.0000    0.0000    0.0000 C   0  0
    0.0000    0.0000    0.0000 C   0  0
    0.0000    0.0000    0.0000 C   0  0
    0.0000    0.0000    0.0000 O   0  0
    0.0000    0.0000    0.0000 C   0  0
    0.0000    0.0000    0.0000 C   0  0
    0.0000    0.0000    0.0000 C   0  0
    0.0000    0.0000    0.0000 S   0  0
    0.0000    0.0000    0.0000 C   0  0
    0.0000    0.0000    0.0000 C   0  0
    0.0000    0.0000    0.0000 C   0  0
    0.0000    0.0000    0.0000 C   0  0
    0.0000    0.0000    0.0000 O   0  0
    0.0000    0.0000    0.0000 C   0  0
    0.0000    0.0000    0.0000 C   0  0
    0.0000    0.0000    0.0000 C   0  0
    0.0000    0.0000    0.0000 C   0  0
    0.0000    0.0000    0.0000 C   0  0
    0.0000    0.0000    0.0000 C   0  0
    0.0000    0.0000    0.0000 C   0  0
    0.0000    0.0000    0.0000 C   0  0
    0.0000    0.0000    0.0000 C   0  0
    0.0000    0.0000    0.0000 C   0  0
    0.0000    0.0000    0.0000 C   0  0
  1  2  1  0
  2  3  2  3
  3  4  1  0
  4  5  1  0
  4  6  2  3
  6  7  1  0
  7  8  2  3
  8  2  1  0
  8  9  1  0
  9 10  1  0
 10 11  2  3
 11 12  1  0
 12 13  2  3
 13 14  1  0
 13 15  1  0
 15 16  2  3
 16 10  1  0
 16 17  1  0
 12 18  1  0
 18 19  1  0
 18 20  1  0
 18 21  1  0
  6 22  1  0
 22 23  1  0
 22 24  1  0
 22 25  1  0
M  END
> <Name>
4;4'-THIOBIS(6-t-BUTYL-m-CRESOL)

> <SMILES>
Cc1cc(O)c(cc1Sc2cc(c(O)cc2C)C(C)(C)C)C(C)(C)C

> <Reference>
NTP/TR-435

> <Id>
96-69-5

> <Actual Value>
NEG

> <Predicted Value>
0.000 NEG

> <Used>
1

> <Status>
Non-Carcinogen

> <iscarc>
0

$$$$
FURFURAL
  SciTegic06161615512D

  7  7  0  0  0  0            999 V2000
    0.0000    0.0000    0.0000 O   0  0
    0.0000    0.0000    0.0000 C   0  0
    0.0000    0.0000    0.0000 C   0  0
    0.0000    0.0000    0.0000 C   0  0
    0.0000    0.0000    0.0000 C   0  0
    0.0000    0.0000    0.0000 C   0  0
    0.0000    0.0000    0.0000 O   0  0
  1  2  2  0
  2  3  1  0
  3  4  2  3
  4  5  1  0
  5  6  2  3
  6  7  1  0
  7  3  1  0
M  END
> <Name>
FURFURAL

> <SMILES>
O=Cc1ccco1

> <Reference>
NTP/TR-382

> <Id>
98-01-1

> <Actual Value>
POS

> <Predicted Value>
1.000 POS

> <Used>
1

> <Status>
Carcinogen

> <iscarc>
1

$$$$
HEXACHLOROETHANE
  SciTegic06161615512D

  8  7  0  0  0  0            999 V2000
    0.0000    0.0000    0.0000 Cl  0  0
    0.0000    0.0000    0.0000 C   0  0
    0.0000    0.0000    0.0000 Cl  0  0
    0.0000    0.0000    0.0000 Cl  0  0
    0.0000    0.0000    0.0000 C   0  0
    0.0000    0.0000    0.0000 Cl  0  0
    0.0000    0.0000    0.0000 Cl  0  0
    0.0000    0.0000    0.0000 Cl  0  0
  1  2  1  0
  2  3  1  0
  2  4  1  0
  2  5  1  0
  5  6  1  0
  5  7  1  0
  5  8  1  0
M  END
> <Name>
HEXACHLOROETHANE

> <SMILES>
ClC(Cl)(Cl)C(Cl)(Cl)Cl

> <Reference>
NTP/TR-68

> <Id>
67-72-1

> <Actual Value>
POS

> <Predicted Value>
1.000 POS

> <Used>
1

> <Status>
Carcinogen

> <iscarc>
1

$$$$
T.D.E.
  SciTegic06161615512D

 18 19  0  0  0  0            999 V2000
    0.0000    0.0000    0.0000 Cl  0  0
    0.0000    0.0000    0.0000 C   0  0
    0.0000    0.0000    0.0000 Cl  0  0
    0.0000    0.0000    0.0000 C   0  0
    0.0000    0.0000    0.0000 C   0  0
    0.0000    0.0000    0.0000 C   0  0
    0.0000    0.0000    0.0000 C   0  0
    0.0000    0.0000    0.0000 C   0  0
    0.0000    0.0000    0.0000 Cl  0  0
    0.0000    0.0000    0.0000 C   0  0
    0.0000    0.0000    0.0000 C   0  0
    0.0000    0.0000    0.0000 C   0  0
    0.0000    0.0000    0.0000 C   0  0
    0.0000    0.0000    0.0000 C   0  0
    0.0000    0.0000    0.0000 C   0  0
    0.0000    0.0000    0.0000 Cl  0  0
    0.0000    0.0000    0.0000 C   0  0
    0.0000    0.0000    0.0000 C   0  0
  1  2  1  0
  2  3  1  0
  2  4  1  0
  4  5  1  0
  5  6  2  3
  6  7  1  0
  7  8  2  3
  8  9  1  0
  8 10  1  0
 10 11  2  3
 11  5  1  0
  4 12  1  0
 12 13  2  3
 13 14  1  0
 14 15  2  3
 15 16  1  0
 15 17  1  0
 17 18  2  3
 18 12  1  0
M  END
> <Name>
T.D.E.

> <SMILES>
ClC(Cl)C(c1ccc(Cl)cc1)c2ccc(Cl)cc2

> <Reference>
NTP/TR-131

> <Id>
72-54-8

> <Actual Value>
NEG

> <Predicted Value>
0.000 NEG

> <Used>
1

> <Status>
Non-Carcinogen

> <iscarc>
0

$$$$
CHLOROTHALONIL
  SciTegic06161615512D

 14 14  0  0  0  0            999 V2000
    0.0000    0.0000    0.0000 Cl  0  0
    0.0000    0.0000    0.0000 C   0  0
    0.0000    0.0000    0.0000 C   0  0
    0.0000    0.0000    0.0000 Cl  0  0
    0.0000    0.0000    0.0000 C   0  0
    0.0000    0.0000    0.0000 C   0  0
    0.0000    0.0000    0.0000 N   0  0
    0.0000    0.0000    0.0000 C   0  0
    0.0000    0.0000    0.0000 Cl  0  0
    0.0000    0.0000    0.0000 C   0  0
    0.0000    0.0000    0.0000 C   0  0
    0.0000    0.0000    0.0000 N   0  0
    0.0000    0.0000    0.0000 C   0  0
    0.0000    0.0000    0.0000 Cl  0  0
  1  2  1  0
  2  3  2  3
  3  4  1  0
  3  5  1  0
  5  6  1  0
  6  7  3  0
  5  8  2  3
  8  9  1  0
  8 10  1  0
 10 11  1  0
 11 12  3  0
 10 13  2  3
 13  2  1  0
 13 14  1  0
M  END
> <Name>
CHLOROTHALONIL

> <SMILES>
Clc1c(Cl)c(C#N)c(Cl)c(C#N)c1Cl

> <Reference>
NTP/TR-41

> <Id>
1897-45-6

> <Actual Value>
NEG

> <Predicted Value>
0.001 NEG

> <Used>
1

> <Status>
Non-Carcinogen

> <iscarc>
0

$$$$
2-AMINOANTHRAQUINONE
  SciTegic06161615512D

 17 19  0  0  0  0            999 V2000
    0.0000    0.0000    0.0000 N   0  0
    0.0000    0.0000    0.0000 C   0  0
    0.0000    0.0000    0.0000 C   0  0
    0.0000    0.0000    0.0000 C   0  0
    0.0000    0.0000    0.0000 C   0  0
    0.0000    0.0000    0.0000 C   0  0
    0.0000    0.0000    0.0000 O   0  0
    0.0000    0.0000    0.0000 C   0  0
    0.0000    0.0000    0.0000 C   0  0
    0.0000    0.0000    0.0000 C   0  0
    0.0000    0.0000    0.0000 C   0  0
    0.0000    0.0000    0.0000 C   0  0
    0.0000    0.0000    0.0000 C   0  0
    0.0000    0.0000    0.0000 C   0  0
    0.0000    0.0000    0.0000 O   0  0
    0.0000    0.0000    0.0000 C   0  0
    0.0000    0.0000    0.0000 C   0  0
  1  2  1  0
  2  3  2  3
  3  4  1  0
  4  5  2  3
  5  6  1  0
  6  7  2  0
  6  8  1  0
  8  9  2  3
  9 10  1  0
 10 11  2  3
 11 12  1  0
 12 13  2  3
 13  8  1  0
 13 14  1  0
 14 15  2  0
 14 16  1  0
 16  5  1  0
 16 17  2  3
 17  2  1  0
M  END
> <Name>
2-AMINOANTHRAQUINONE

> <SMILES>
Nc3ccc2C(=O)c1ccccc1C(=O)c2c3

> <Reference>
NTP/TR-144

> <Id>
117-79-3

> <Actual Value>
POS

> <Predicted Value>
1.000 POS

> <Used>
1

> <Status>
Carcinogen

> <CanonicalTautomer>
Yes

> <NumberOfTautomers>
2

> <iscarc>
1

$$$$
L-ASCORBIC ACID
  SciTegic06161615512D

 12 12  0  0  0  0            999 V2000
    0.0000    0.0000    0.0000 O   0  0
    0.0000    0.0000    0.0000 C   0  0
    0.0000    0.0000    0.0000 C   0  0
    0.0000    0.0000    0.0000 O   0  0
    0.0000    0.0000    0.0000 C   0  0
    0.0000    0.0000    0.0000 O   0  0
    0.0000    0.0000    0.0000 C   0  0
    0.0000    0.0000    0.0000 O   0  0
    0.0000    0.0000    0.0000 C   0  0
    0.0000    0.0000    0.0000 C   0  0
    0.0000    0.0000    0.0000 O   0  0
    0.0000    0.0000    0.0000 O   0  0
  1  2  1  0
  2  3  1  0
  3  4  1  0
  3  5  1  0
  5  6  1  0
  6  7  1  0
  7  8  1  0
  7  9  2  3
  9 10  1  0
 10  5  1  0
 10 11  2  0
  9 12  1  0
M  END
> <Name>
L-ASCORBIC ACID

> <SMILES>
OCC(O)C1OC(=O)C(=C1O)O

> <Reference>
NTP/TR-247

> <Id>
50-81-7

> <Actual Value>
NEG

> <Predicted Value>
0.000 NEG

> <Used>
1

> <Status>
Non-Carcinogen

> <CanonicalTautomer>
Yes

> <NumberOfTautomers>
2

> <iscarc>
0

$$$$
1-AMINO-2;4-DIBROMOANTHRAQUINONE
  SciTegic06161615512D

 19 21  0  0  0  0            999 V2000
    0.0000    0.0000    0.0000 N   0  0
    0.0000    0.0000    0.0000 C   0  0
    0.0000    0.0000    0.0000 C   0  0
    0.0000    0.0000    0.0000 Br  0  0
    0.0000    0.0000    0.0000 C   0  0
    0.0000    0.0000    0.0000 C   0  0
    0.0000    0.0000    0.0000 Br  0  0
    0.0000    0.0000    0.0000 C   0  0
    0.0000    0.0000    0.0000 C   0  0
    0.0000    0.0000    0.0000 O   0  0
    0.0000    0.0000    0.0000 C   0  0
    0.0000    0.0000    0.0000 C   0  0
    0.0000    0.0000    0.0000 C   0  0
    0.0000    0.0000    0.0000 C   0  0
    0.0000    0.0000    0.0000 C   0  0
    0.0000    0.0000    0.0000 C   0  0
    0.0000    0.0000    0.0000 C   0  0
    0.0000    0.0000    0.0000 O   0  0
    0.0000    0.0000    0.0000 C   0  0
  1  2  1  0
  2  3  2  3
  3  4  1  0
  3  5  1  0
  5  6  2  3
  6  7  1  0
  6  8  1  0
  8  9  1  0
  9 10  2  0
  9 11  1  0
 11 12  2  3
 12 13  1  0
 13 14  2  3
 14 15  1  0
 15 16  2  3
 16 11  1  0
 16 17  1  0
 17 18  2  0
 17 19  1  0
 19  2  1  0
 19  8  2  3
M  END
> <Name>
1-AMINO-2;4-DIBROMOANTHRAQUINONE

> <SMILES>
Nc2c(Br)cc(Br)c3C(=O)c1ccccc1C(=O)c23

> <Reference>
NTP/TR-383

> <Id>
81-49-2

> <Actual Value>
POS

> <Predicted Value>
1.000 POS

> <Used>
1

> <Status>
Carcinogen

> <CanonicalTautomer>
Yes

> <NumberOfTautomers>
2

> <iscarc>
1

$$$$
BENZOFURAN
  SciTegic06161615512D

  9 10  0  0  0  0            999 V2000
    0.0000    0.0000    0.0000 C   0  0
    0.0000    0.0000    0.0000 C   0  0
    0.0000    0.0000    0.0000 C   0  0
    0.0000    0.0000    0.0000 C   0  0
    0.0000    0.0000    0.0000 O   0  0
    0.0000    0.0000    0.0000 C   0  0
    0.0000    0.0000    0.0000 C   0  0
    0.0000    0.0000    0.0000 C   0  0
    0.0000    0.0000    0.0000 C   0  0
  1  2  2  3
  2  3  1  0
  3  4  2  3
  4  5  1  0
  5  6  1  0
  6  7  2  3
  7  8  1  0
  8  4  1  0
  8  9  2  3
  9  1  1  0
M  END
> <Name>
BENZOFURAN

> <SMILES>
c2ccc1occc1c2

> <Reference>
NTP/TR-370

> <Id>
271-89-6

> <Actual Value>
POS

> <Predicted Value>
1.000 POS

> <Used>
1

> <Status>
Carcinogen

> <iscarc>
1

$$$$
ALDICARB
  SciTegic06161615512D

 12 11  0  0  0  0            999 V2000
    0.0000    0.0000    0.0000 C   0  0
    0.0000    0.0000    0.0000 N   0  0
    0.0000    0.0000    0.0000 C   0  0
    0.0000    0.0000    0.0000 O   0  0
    0.0000    0.0000    0.0000 O   0  0
    0.0000    0.0000    0.0000 N   0  0
    0.0000    0.0000    0.0000 C   0  0
    0.0000    0.0000    0.0000 C   0  0
    0.0000    0.0000    0.0000 C   0  0
    0.0000    0.0000    0.0000 C   0  0
    0.0000    0.0000    0.0000 S   0  0
    0.0000    0.0000    0.0000 C   0  0
  1  2  1  0
  2  3  1  0
  3  4  2  0
  3  5  1  0
  5  6  1  0
  6  7  2  3
  7  8  1  0
  8  9  1  0
  8 10  1  0
  8 11  1  0
 11 12  1  0
M  END
> <Name>
ALDICARB

> <SMILES>
CNC(=O)ON=CC(C)(C)SC

> <Reference>
NTP/TR-136

> <Id>
116-06-3

> <Actual Value>
NEG

> <Predicted Value>
0.000 NEG

> <Used>
1

> <Status>
Non-Carcinogen

> <iscarc>
0

$$$$
HC BLUE NO.1
  SciTegic06161615512D

 18 18  0  0  0  0            999 V2000
    0.0000    0.0000    0.0000 C   0  0
    0.0000    0.0000    0.0000 N   0  0
    0.0000    0.0000    0.0000 C   0  0
    0.0000    0.0000    0.0000 C   0  0
    0.0000    0.0000    0.0000 C   0  0
    0.0000    0.0000    0.0000 C   0  0
    0.0000    0.0000    0.0000 C   0  0
    0.0000    0.0000    0.0000 C   0  0
    0.0000    0.0000    0.0000 N   0  0
    0.0000    0.0000    0.0000 O   0  0
    0.0000    0.0000    0.0000 O   0  0
    0.0000    0.0000    0.0000 N   0  0
    0.0000    0.0000    0.0000 C   0  0
    0.0000    0.0000    0.0000 C   0  0
    0.0000    0.0000    0.0000 O   0  0
    0.0000    0.0000    0.0000 C   0  0
    0.0000    0.0000    0.0000 C   0  0
    0.0000    0.0000    0.0000 O   0  0
  1  2  1  0
  2  3  1  0
  3  4  2  3
  4  5  1  0
  5  6  2  3
  6  7  1  0
  7  8  2  3
  8  3  1  0
  8  9  1  0
  9 10  2  0
  9 11  2  0
  6 12  1  0
 12 13  1  0
 13 14  1  0
 14 15  1  0
 12 16  1  0
 16 17  1  0
 17 18  1  0
M  END
> <Name>
HC BLUE NO.1

> <SMILES>
CNc1ccc(cc1N(=O)=O)N(CCO)CCO

> <Reference>
NTP/TR-271

> <Id>
2784-94-3

> <Actual Value>
POS

> <Predicted Value>
0.999 POS

> <Used>
1

> <Status>
Carcinogen

> <iscarc>
1

$$$$
TRIBROMOMETHANE
  SciTegic06161615512D

  4  3  0  0  0  0            999 V2000
    0.0000    0.0000    0.0000 Br  0  0
    0.0000    0.0000    0.0000 C   0  0
    0.0000    0.0000    0.0000 Br  0  0
    0.0000    0.0000    0.0000 Br  0  0
  1  2  1  0
  2  3  1  0
  2  4  1  0
M  END
> <Name>
TRIBROMOMETHANE

> <SMILES>
BrC(Br)Br

> <Reference>
NTP/TR-350

> <Id>
75-25-2

> <Actual Value>
NEG

> <Predicted Value>
0.000 NEG

> <Used>
1

> <Status>
Non-Carcinogen

> <iscarc>
0

$$$$
ENDRIN
  SciTegic06161615512D

 19 23  0  0  0  0            999 V2000
    0.0000    0.0000    0.0000 Cl  0  0
    0.0000    0.0000    0.0000 C   0  0
    0.0000    0.0000    0.0000 C   0  0
    0.0000    0.0000    0.0000 Cl  0  0
    0.0000    0.0000    0.0000 C   0  0
    0.0000    0.0000    0.0000 Cl  0  0
    0.0000    0.0000    0.0000 C   0  0
    0.0000    0.0000    0.0000 C   0  0
    0.0000    0.0000    0.0000 C   0  0
    0.0000    0.0000    0.0000 C   0  0
    0.0000    0.0000    0.0000 C   0  0
    0.0000    0.0000    0.0000 O   0  0
    0.0000    0.0000    0.0000 C   0  0
    0.0000    0.0000    0.0000 C   0  0
    0.0000    0.0000    0.0000 C   0  0
    0.0000    0.0000    0.0000 Cl  0  0
    0.0000    0.0000    0.0000 C   0  0
    0.0000    0.0000    0.0000 Cl  0  0
    0.0000    0.0000    0.0000 Cl  0  0
  1  2  1  0
  2  3  2  3
  3  4  1  0
  3  5  1  0
  5  6  1  0
  5  7  1  0
  7  8  1  0
  8  9  1  0
  9 10  1  0
 10 11  1  0
 11 12  1  0
 12 13  1  0
 13  8  1  0
 13 11  1  0
 10 14  1  0
 14  7  1  0
 14 15  1  0
 15  2  1  0
 15 16  1  0
 15 17  1  0
 17  5  1  0
 17 18  1  0
 17 19  1  0
M  END
> <Name>
ENDRIN

> <SMILES>
ClC4=C(Cl)C5(Cl)C3C1CC(C2OC12)C3C4(Cl)C5(Cl)Cl

> <Reference>
NTP/TR-12

> <Id>
72-20-8

> <Actual Value>
NEG

> <Predicted Value>
0.000 NEG

> <Used>
1

> <Status>
Non-Carcinogen

> <iscarc>
0

$$$$
TRIAMTERENE
  SciTegic06161615512D

 19 21  0  0  0  0            999 V2000
    0.0000    0.0000    0.0000 N   0  0
    0.0000    0.0000    0.0000 C   0  0
    0.0000    0.0000    0.0000 N   0  0
    0.0000    0.0000    0.0000 C   0  0
    0.0000    0.0000    0.0000 N   0  0
    0.0000    0.0000    0.0000 C   0  0
    0.0000    0.0000    0.0000 N   0  0
    0.0000    0.0000    0.0000 C   0  0
    0.0000    0.0000    0.0000 C   0  0
    0.0000    0.0000    0.0000 C   0  0
    0.0000    0.0000    0.0000 C   0  0
    0.0000    0.0000    0.0000 C   0  0
    0.0000    0.0000    0.0000 C   0  0
    0.0000    0.0000    0.0000 C   0  0
    0.0000    0.0000    0.0000 C   0  0
    0.0000    0.0000    0.0000 N   0  0
    0.0000    0.0000    0.0000 N   0  0
    0.0000    0.0000    0.0000 C   0  0
    0.0000    0.0000    0.0000 N   0  0
  1  2  1  0
  2  3  2  3
  3  4  1  0
  4  5  1  0
  4  6  2  3
  6  7  1  0
  7  8  2  3
  8  9  1  0
  9 10  2  3
 10 11  1  0
 11 12  2  3
 12 13  1  0
 13 14  2  3
 14  9  1  0
  8 15  1  0
 15 16  1  0
 15 17  2  3
 17 18  1  0
 18  6  1  0
 18 19  2  3
 19  2  1  0
M  END
> <Name>
TRIAMTERENE

> <SMILES>
Nc3nc(N)c2nc(c1ccccc1)c(N)nc2n3

> <Reference>
NTP/TR-420

> <Id>
396-01-0

> <Actual Value>
POS

> <Predicted Value>
1.000 POS

> <Used>
1

> <Status>
Carcinogen

> <CanonicalTautomer>
Yes

> <NumberOfTautomers>
18

> <iscarc>
1

$$$$
D-MANNITOL
  SciTegic06161615512D

 12 11  0  0  0  0            999 V2000
    0.0000    0.0000    0.0000 O   0  0
    0.0000    0.0000    0.0000 C   0  0
    0.0000    0.0000    0.0000 C   0  0
    0.0000    0.0000    0.0000 O   0  0
    0.0000    0.0000    0.0000 C   0  0
    0.0000    0.0000    0.0000 O   0  0
    0.0000    0.0000    0.0000 C   0  0
    0.0000    0.0000    0.0000 O   0  0
    0.0000    0.0000    0.0000 C   0  0
    0.0000    0.0000    0.0000 O   0  0
    0.0000    0.0000    0.0000 C   0  0
    0.0000    0.0000    0.0000 O   0  0
  1  2  1  0
  2  3  1  0
  3  4  1  0
  3  5  1  0
  5  6  1  0
  5  7  1  0
  7  8  1  0
  7  9  1  0
  9 10  1  0
  9 11  1  0
 11 12  1  0
M  END
> <Name>
D-MANNITOL

> <SMILES>
OCC(O)C(O)C(O)C(O)CO

> <Reference>
NTP/TR-236

> <Id>
69-65-8

> <Actual Value>
NEG

> <Predicted Value>
0.000 NEG

> <Used>
1

> <Status>
Non-Carcinogen

> <iscarc>
0

$$$$
1-PHENYL-3-METHYL-5-PYRAZOLONE
  SciTegic06161615512D

 13 14  0  0  0  0            999 V2000
    0.0000    0.0000    0.0000 C   0  0
    0.0000    0.0000    0.0000 C   0  0
    0.0000    0.0000    0.0000 N   0  0
    0.0000    0.0000    0.0000 N   0  0
    0.0000    0.0000    0.0000 C   0  0
    0.0000    0.0000    0.0000 O   0  0
    0.0000    0.0000    0.0000 C   0  0
    0.0000    0.0000    0.0000 C   0  0
    0.0000    0.0000    0.0000 C   0  0
    0.0000    0.0000    0.0000 C   0  0
    0.0000    0.0000    0.0000 C   0  0
    0.0000    0.0000    0.0000 C   0  0
    0.0000    0.0000    0.0000 C   0  0
  1  2  1  0
  2  3  2  3
  3  4  1  0
  4  5  1  0
  5  6  2  0
  5  7  1  0
  7  2  1  0
  4  8  1  0
  8  9  2  3
  9 10  1  0
 10 11  2  3
 11 12  1  0
 12 13  2  3
 13  8  1  0
M  END
> <Name>
1-PHENYL-3-METHYL-5-PYRAZOLONE

> <SMILES>
CC1=NN(C(=O)C1)c2ccccc2

> <Reference>
NTP/TR-141

> <Id>
89-25-8

> <Actual Value>
NEG

> <Predicted Value>
0.000 NEG

> <Used>
1

> <Status>
Non-Carcinogen

> <iscarc>
0

$$$$
p-TCDD
  SciTegic06161615512D

 18 20  0  0  0  0            999 V2000
    0.0000    0.0000    0.0000 Cl  0  0
    0.0000    0.0000    0.0000 C   0  0
    0.0000    0.0000    0.0000 C   0  0
    0.0000    0.0000    0.0000 C   0  0
    0.0000    0.0000    0.0000 O   0  0
    0.0000    0.0000    0.0000 C   0  0
    0.0000    0.0000    0.0000 C   0  0
    0.0000    0.0000    0.0000 C   0  0
    0.0000    0.0000    0.0000 Cl  0  0
    0.0000    0.0000    0.0000 C   0  0
    0.0000    0.0000    0.0000 Cl  0  0
    0.0000    0.0000    0.0000 C   0  0
    0.0000    0.0000    0.0000 C   0  0
    0.0000    0.0000    0.0000 O   0  0
    0.0000    0.0000    0.0000 C   0  0
    0.0000    0.0000    0.0000 C   0  0
    0.0000    0.0000    0.0000 C   0  0
    0.0000    0.0000    0.0000 Cl  0  0
  1  2  1  0
  2  3  2  3
  3  4  1  0
  4  5  1  0
  5  6  1  0
  6  7  2  3
  7  8  1  0
  8  9  1  0
  8 10  2  3
 10 11  1  0
 10 12  1  0
 12 13  2  3
 13  6  1  0
 13 14  1  0
 14 15  1  0
 15  4  2  3
 15 16  1  0
 16 17  2  3
 17  2  1  0
 17 18  1  0
M  END
> <Name>
p-TCDD

> <SMILES>
Clc3cc2Oc1cc(Cl)c(Cl)cc1Oc2cc3Cl

> <Reference>
NTP/TR-209

> <Id>
1746-01-6

> <Actual Value>
POS

> <Predicted Value>
1.000 POS

> <Used>
1

> <Status>
Carcinogen

> <iscarc>
1

$$$$
D-LIMONENE
  SciTegic06161615512D

 10 10  0  0  0  0            999 V2000
    0.0000    0.0000    0.0000 C   0  0
    0.0000    0.0000    0.0000 C   0  0
    0.0000    0.0000    0.0000 C   0  0
    0.0000    0.0000    0.0000 C   0  0
    0.0000    0.0000    0.0000 C   0  0
    0.0000    0.0000    0.0000 C   0  0
    0.0000    0.0000    0.0000 C   0  0
    0.0000    0.0000    0.0000 C   0  0
    0.0000    0.0000    0.0000 C   0  0
    0.0000    0.0000    0.0000 C   0  0
  1  2  1  0
  2  3  2  3
  3  4  1  0
  4  5  1  0
  5  6  1  0
  6  7  1  0
  7  2  1  0
  5  8  1  0
  8  9  1  0
  8 10  2  0
M  END
> <Name>
D-LIMONENE

> <SMILES>
CC1=CCC(CC1)C(C)=C

> <Reference>
NTP/TR-347

> <Id>
5989-27-5

> <Actual Value>
NEG

> <Predicted Value>
0.000 NEG

> <Used>
1

> <Status>
Non-Carcinogen

> <iscarc>
0

$$$$
HC BLUE NO.2
  SciTegic06161615512D

 20 20  0  0  0  0            999 V2000
    0.0000    0.0000    0.0000 O   0  0
    0.0000    0.0000    0.0000 C   0  0
    0.0000    0.0000    0.0000 C   0  0
    0.0000    0.0000    0.0000 N   0  0
    0.0000    0.0000    0.0000 C   0  0
    0.0000    0.0000    0.0000 C   0  0
    0.0000    0.0000    0.0000 C   0  0
    0.0000    0.0000    0.0000 C   0  0
    0.0000    0.0000    0.0000 C   0  0
    0.0000    0.0000    0.0000 C   0  0
    0.0000    0.0000    0.0000 N   0  0
    0.0000    0.0000    0.0000 O   0  0
    0.0000    0.0000    0.0000 O   0  0
    0.0000    0.0000    0.0000 N   0  0
    0.0000    0.0000    0.0000 C   0  0
    0.0000    0.0000    0.0000 C   0  0
    0.0000    0.0000    0.0000 O   0  0
    0.0000    0.0000    0.0000 C   0  0
    0.0000    0.0000    0.0000 C   0  0
    0.0000    0.0000    0.0000 O   0  0
  1  2  1  0
  2  3  1  0
  3  4  1  0
  4  5  1  0
  5  6  2  3
  6  7  1  0
  7  8  2  3
  8  9  1  0
  9 10  2  3
 10  5  1  0
 10 11  1  0
 11 12  2  0
 11 13  2  0
  8 14  1  0
 14 15  1  0
 15 16  1  0
 16 17  1  0
 14 18  1  0
 18 19  1  0
 19 20  1  0
M  END
> <Name>
HC BLUE NO.2

> <SMILES>
OCCNc1ccc(cc1N(=O)=O)N(CCO)CCO

> <Reference>
NTP/TR-293

> <Id>
33229-34-4

> <Actual Value>
NEG

> <Predicted Value>
0.000 NEG

> <Used>
1

> <Status>
Non-Carcinogen

> <iscarc>
0

$$$$
o-CHLOROBENZALMALONONITRILE
  SciTegic06161615512D

 13 13  0  0  0  0            999 V2000
    0.0000    0.0000    0.0000 Cl  0  0
    0.0000    0.0000    0.0000 C   0  0
    0.0000    0.0000    0.0000 C   0  0
    0.0000    0.0000    0.0000 C   0  0
    0.0000    0.0000    0.0000 C   0  0
    0.0000    0.0000    0.0000 C   0  0
    0.0000    0.0000    0.0000 C   0  0
    0.0000    0.0000    0.0000 C   0  0
    0.0000    0.0000    0.0000 C   0  0
    0.0000    0.0000    0.0000 C   0  0
    0.0000    0.0000    0.0000 N   0  0
    0.0000    0.0000    0.0000 C   0  0
    0.0000    0.0000    0.0000 N   0  0
  1  2  1  0
  2  3  2  3
  3  4  1  0
  4  5  2  3
  5  6  1  0
  6  7  2  3
  7  2  1  0
  7  8  1  0
  8  9  2  3
  9 10  1  0
 10 11  3  0
  9 12  1  0
 12 13  3  0
M  END
> <Name>
o-CHLOROBENZALMALONONITRILE

> <SMILES>
Clc1ccccc1C=C(C#N)C#N

> <Reference>
NTP/TR-377

> <Id>
2698-41-1

> <Actual Value>
NEG

> <Predicted Value>
0.000 NEG

> <Used>
1

> <Status>
Non-Carcinogen

> <iscarc>
0

$$$$
PICLORAM
  SciTegic06161615512D

 13 13  0  0  0  0            999 V2000
    0.0000    0.0000    0.0000 N   0  0
    0.0000    0.0000    0.0000 C   0  0
    0.0000    0.0000    0.0000 C   0  0
    0.0000    0.0000    0.0000 Cl  0  0
    0.0000    0.0000    0.0000 C   0  0
    0.0000    0.0000    0.0000 Cl  0  0
    0.0000    0.0000    0.0000 N   0  0
    0.0000    0.0000    0.0000 C   0  0
    0.0000    0.0000    0.0000 C   0  0
    0.0000    0.0000    0.0000 O   0  0
    0.0000    0.0000    0.0000 O   0  0
    0.0000    0.0000    0.0000 C   0  0
    0.0000    0.0000    0.0000 Cl  0  0
  1  2  1  0
  2  3  2  3
  3  4  1  0
  3  5  1  0
  5  6  1  0
  5  7  2  3
  7  8  1  0
  8  9  1  0
  9 10  1  0
  9 11  2  0
  8 12  2  3
 12  2  1  0
 12 13  1  0
M  END
> <Name>
PICLORAM

> <SMILES>
Nc1c(Cl)c(Cl)nc(C(O)=O)c1Cl

> <Reference>
NTP/TR-23

> <Id>
1918-02-1

> <Actual Value>
NEG

> <Predicted Value>
0.000 NEG

> <Used>
1

> <Status>
Non-Carcinogen

> <CanonicalTautomer>
Yes

> <NumberOfTautomers>
2

> <iscarc>
0

$$$$
DICOFOL
  SciTegic06161615512D

 20 21  0  0  0  0            999 V2000
    0.0000    0.0000    0.0000 O   0  0
    0.0000    0.0000    0.0000 C   0  0
    0.0000    0.0000    0.0000 C   0  0
    0.0000    0.0000    0.0000 C   0  0
    0.0000    0.0000    0.0000 C   0  0
    0.0000    0.0000    0.0000 C   0  0
    0.0000    0.0000    0.0000 Cl  0  0
    0.0000    0.0000    0.0000 C   0  0
    0.0000    0.0000    0.0000 C   0  0
    0.0000    0.0000    0.0000 C   0  0
    0.0000    0.0000    0.0000 C   0  0
    0.0000    0.0000    0.0000 C   0  0
    0.0000    0.0000    0.0000 C   0  0
    0.0000    0.0000    0.0000 Cl  0  0
    0.0000    0.0000    0.0000 C   0  0
    0.0000    0.0000    0.0000 C   0  0
    0.0000    0.0000    0.0000 C   0  0
    0.0000    0.0000    0.0000 Cl  0  0
    0.0000    0.0000    0.0000 Cl  0  0
    0.0000    0.0000    0.0000 Cl  0  0
  1  2  1  0
  2  3  1  0
  3  4  2  3
  4  5  1  0
  5  6  2  3
  6  7  1  0
  6  8  1  0
  8  9  2  3
  9  3  1  0
  2 10  1  0
 10 11  2  3
 11 12  1  0
 12 13  2  3
 13 14  1  0
 13 15  1  0
 15 16  2  3
 16 10  1  0
  2 17  1  0
 17 18  1  0
 17 19  1  0
 17 20  1  0
M  END
> <Name>
DICOFOL

> <SMILES>
OC(c1ccc(Cl)cc1)(c2ccc(Cl)cc2)C(Cl)(Cl)Cl

> <Reference>
NTP/TR-90

> <Id>
115-32-2

> <Actual Value>
POS

> <Predicted Value>
1.000 POS

> <Used>
1

> <Status>
Carcinogen

> <iscarc>
1

$$$$
2;3-DIBROMO-1-PROPANOL
  SciTegic06161615512D

  6  5  0  0  0  0            999 V2000
    0.0000    0.0000    0.0000 O   0  0
    0.0000    0.0000    0.0000 C   0  0
    0.0000    0.0000    0.0000 C   0  0
    0.0000    0.0000    0.0000 Br  0  0
    0.0000    0.0000    0.0000 C   0  0
    0.0000    0.0000    0.0000 Br  0  0
  1  2  1  0
  2  3  1  0
  3  4  1  0
  3  5  1  0
  5  6  1  0
M  END
> <Name>
2;3-DIBROMO-1-PROPANOL

> <SMILES>
OCC(Br)CBr

> <Reference>
NTP/TR-400

> <Id>
96-13-9

> <Actual Value>
POS

> <Predicted Value>
1.000 POS

> <Used>
1

> <Status>
Carcinogen

> <iscarc>
1

$$$$
PHOTODIELDRIN
  SciTegic06161615512D

 19 24  0  0  0  0            999 V2000
    0.0000    0.0000    0.0000 Cl  0  0
    0.0000    0.0000    0.0000 C   0  0
    0.0000    0.0000    0.0000 C   0  0
    0.0000    0.0000    0.0000 Cl  0  0
    0.0000    0.0000    0.0000 C   0  0
    0.0000    0.0000    0.0000 C   0  0
    0.0000    0.0000    0.0000 C   0  0
    0.0000    0.0000    0.0000 O   0  0
    0.0000    0.0000    0.0000 C   0  0
    0.0000    0.0000    0.0000 C   0  0
    0.0000    0.0000    0.0000 C   0  0
    0.0000    0.0000    0.0000 C   0  0
    0.0000    0.0000    0.0000 Cl  0  0
    0.0000    0.0000    0.0000 C   0  0
    0.0000    0.0000    0.0000 Cl  0  0
    0.0000    0.0000    0.0000 C   0  0
    0.0000    0.0000    0.0000 C   0  0
    0.0000    0.0000    0.0000 Cl  0  0
    0.0000    0.0000    0.0000 Cl  0  0
  1  2  1  0
  2  3  1  0
  3  4  1  0
  3  5  1  0
  5  6  1  0
  6  7  1  0
  7  8  1  0
  8  9  1  0
  9  7  1  0
  9 10  1  0
 10 11  1  0
 11  6  1  0
 11 12  1  0
 12  2  1  0
 12 13  1  0
 12 14  1  0
 14 15  1  0
 14 16  1  0
 16  5  1  0
 16 10  1  0
 14 17  1  0
 17  3  1  0
 17 18  1  0
 17 19  1  0
M  END
> <Name>
PHOTODIELDRIN

> <SMILES>
ClC3C6(Cl)C4C2C1OC1C5C2C3(Cl)C(Cl)(C45)C6(Cl)Cl

> <Reference>
NTP/TR-17

> <Id>
13366-73-9

> <Actual Value>
NEG

> <Predicted Value>
0.000 NEG

> <Used>
1

> <Status>
Non-Carcinogen

> <iscarc>
0

$$$$
TRIFLURALIN
  SciTegic06161615512D

 23 23  0  0  0  0            999 V2000
    0.0000    0.0000    0.0000 C   0  0
    0.0000    0.0000    0.0000 C   0  0
    0.0000    0.0000    0.0000 C   0  0
    0.0000    0.0000    0.0000 N   0  0
    0.0000    0.0000    0.0000 C   0  0
    0.0000    0.0000    0.0000 C   0  0
    0.0000    0.0000    0.0000 C   0  0
    0.0000    0.0000    0.0000 C   0  0
    0.0000    0.0000    0.0000 C   0  0
    0.0000    0.0000    0.0000 C   0  0
    0.0000    0.0000    0.0000 C   0  0
    0.0000    0.0000    0.0000 C   0  0
    0.0000    0.0000    0.0000 C   0  0
    0.0000    0.0000    0.0000 N   0  0
    0.0000    0.0000    0.0000 O   0  0
    0.0000    0.0000    0.0000 O   0  0
    0.0000    0.0000    0.0000 C   0  0
    0.0000    0.0000    0.0000 F   0  0
    0.0000    0.0000    0.0000 F   0  0
    0.0000    0.0000    0.0000 F   0  0
    0.0000    0.0000    0.0000 N   0  0
    0.0000    0.0000    0.0000 O   0  0
    0.0000    0.0000    0.0000 O   0  0
  1  2  1  0
  2  3  1  0
  3  4  1  0
  4  5  1  0
  5  6  1  0
  6  7  1  0
  4  8  1  0
  8  9  2  3
  9 10  1  0
 10 11  2  3
 11 12  1  0
 12 13  2  3
 13  8  1  0
 13 14  1  0
 14 15  2  0
 14 16  2  0
 11 17  1  0
 17 18  1  0
 17 19  1  0
 17 20  1  0
  9 21  1  0
 21 22  2  0
 21 23  2  0
M  END
> <Name>
TRIFLURALIN

> <SMILES>
CCCN(CCC)c1c(cc(cc1N(=O)=O)C(F)(F)F)N(=O)=O

> <Reference>
NTP/TR-34

> <Id>
1582-09-8

> <Actual Value>
NEG

> <Predicted Value>
0.000 NEG

> <Used>
1

> <Status>
Non-Carcinogen

> <iscarc>
0

$$$$
OXYTETRACYCLINE HCL
  SciTegic06161615512D

 33 36  0  0  0  0            999 V2000
    0.0000    0.0000    0.0000 C   0  0
    0.0000    0.0000    0.0000 N   0  0
    0.0000    0.0000    0.0000 C   0  0
    0.0000    0.0000    0.0000 C   0  0
    0.0000    0.0000    0.0000 C   0  0
    0.0000    0.0000    0.0000 C   0  0
    0.0000    0.0000    0.0000 O   0  0
    0.0000    0.0000    0.0000 C   0  0
    0.0000    0.0000    0.0000 C   0  0
    0.0000    0.0000    0.0000 C   0  0
    0.0000    0.0000    0.0000 O   0  0
    0.0000    0.0000    0.0000 C   0  0
    0.0000    0.0000    0.0000 O   0  0
    0.0000    0.0000    0.0000 C   0  0
    0.0000    0.0000    0.0000 O   0  0
    0.0000    0.0000    0.0000 C   0  0
    0.0000    0.0000    0.0000 C   0  0
    0.0000    0.0000    0.0000 O   0  0
    0.0000    0.0000    0.0000 C   0  0
    0.0000    0.0000    0.0000 N   0  0
    0.0000    0.0000    0.0000 O   0  0
    0.0000    0.0000    0.0000 C   0  0
    0.0000    0.0000    0.0000 O   0  0
    0.0000    0.0000    0.0000 C   0  0
    0.0000    0.0000    0.0000 C   0  0
    0.0000    0.0000    0.0000 O   0  0
    0.0000    0.0000    0.0000 C   0  0
    0.0000    0.0000    0.0000 C   0  0
    0.0000    0.0000    0.0000 C   0  0
    0.0000    0.0000    0.0000 C   0  0
    0.0000    0.0000    0.0000 C   0  0
    0.0000    0.0000    0.0000 C   0  0
    0.0000    0.0000    0.0000 O   0  0
  1  2  1  0
  2  3  1  0
  2  4  1  0
  4  5  1  0
  5  6  1  0
  6  7  1  0
  6  8  1  0
  8  9  1  0
  9 10  2  3
 10 11  1  0
 10 12  1  0
 12  5  1  0
 12 13  1  0
 12 14  1  0
 14 15  1  0
 14 16  2  3
 16 17  1  0
 17  4  1  0
 17 18  2  0
 16 19  1  0
 19 20  1  0
 19 21  2  0
  9 22  1  0
 22 23  2  0
 22 24  1  0
 24 25  2  3
 25 26  1  0
 25 27  1  0
 27 28  2  3
 28 29  1  0
 29 30  2  3
 30 24  1  0
 30 31  1  0
 31  8  1  0
 31 32  1  0
 31 33  1  0
M  END
> <Name>
OXYTETRACYCLINE HCL

> <SMILES>
CN(C)C2C1C(O)C4C(=C(O)C1(O)C(=O)C(=C2O)C(N)=O)C(=O)c3c(O)cccc3C4(C)O

> <Reference>
NTP/TR-315

> <Id>
2058-46-0

> <Actual Value>
NEG

> <Predicted Value>
0.000 NEG

> <Used>
1

> <Status>
Non-Carcinogen

> <CanonicalTautomer>
Yes

> <NumberOfTautomers>
9

> <iscarc>
0

$$$$
CINNAMYL ANTHRANILATE
  SciTegic06161615512D

 19 20  0  0  0  0            999 V2000
    0.0000    0.0000    0.0000 N   0  0
    0.0000    0.0000    0.0000 C   0  0
    0.0000    0.0000    0.0000 C   0  0
    0.0000    0.0000    0.0000 C   0  0
    0.0000    0.0000    0.0000 C   0  0
    0.0000    0.0000    0.0000 C   0  0
    0.0000    0.0000    0.0000 C   0  0
    0.0000    0.0000    0.0000 C   0  0
    0.0000    0.0000    0.0000 O   0  0
    0.0000    0.0000    0.0000 O   0  0
    0.0000    0.0000    0.0000 C   0  0
    0.0000    0.0000    0.0000 C   0  0
    0.0000    0.0000    0.0000 C   0  0
    0.0000    0.0000    0.0000 C   0  0
    0.0000    0.0000    0.0000 C   0  0
    0.0000    0.0000    0.0000 C   0  0
    0.0000    0.0000    0.0000 C   0  0
    0.0000    0.0000    0.0000 C   0  0
    0.0000    0.0000    0.0000 C   0  0
  1  2  1  0
  2  3  2  3
  3  4  1  0
  4  5  2  3
  5  6  1  0
  6  7  2  3
  7  2  1  0
  7  8  1  0
  8  9  2  0
  8 10  1  0
 10 11  1  0
 11 12  1  0
 12 13  2  3
 13 14  1  0
 14 15  2  3
 15 16  1  0
 16 17  2  3
 17 18  1  0
 18 19  2  3
 19 14  1  0
M  END
> <Name>
CINNAMYL ANTHRANILATE

> <SMILES>
Nc1ccccc1C(=O)OCC=Cc2ccccc2

> <Reference>
NTP/TR-196

> <Id>
87-29-6

> <Actual Value>
POS

> <Predicted Value>
1.000 POS

> <Used>
1

> <Status>
Carcinogen

> <CanonicalTautomer>
Yes

> <NumberOfTautomers>
2

> <iscarc>
1

$$$$
1;1-DIBROMO-3-CHLOROPROPANE
  SciTegic06161615512D

  6  5  0  0  0  0            999 V2000
    0.0000    0.0000    0.0000 Cl  0  0
    0.0000    0.0000    0.0000 C   0  0
    0.0000    0.0000    0.0000 C   0  0
    0.0000    0.0000    0.0000 Br  0  0
    0.0000    0.0000    0.0000 C   0  0
    0.0000    0.0000    0.0000 Br  0  0
  1  2  1  0
  2  3  1  0
  3  4  1  0
  3  5  1  0
  5  6  1  0
M  END
> <Name>
1;1-DIBROMO-3-CHLOROPROPANE

> <SMILES>
ClCC(Br)CBr

> <Reference>
NTP/TR-206

> <Id>
96-12-8

> <Actual Value>
POS

> <Predicted Value>
1.000 POS

> <Used>
1

> <Status>
Carcinogen

> <iscarc>
1

$$$$
NITROFURAZONE
  SciTegic06161615512D

 14 14  0  0  0  0            999 V2000
    0.0000    0.0000    0.0000 N   0  0
    0.0000    0.0000    0.0000 C   0  0
    0.0000    0.0000    0.0000 O   0  0
    0.0000    0.0000    0.0000 N   0  0
    0.0000    0.0000    0.0000 N   0  0
    0.0000    0.0000    0.0000 C   0  0
    0.0000    0.0000    0.0000 C   0  0
    0.0000    0.0000    0.0000 C   0  0
    0.0000    0.0000    0.0000 C   0  0
    0.0000    0.0000    0.0000 C   0  0
    0.0000    0.0000    0.0000 O   0  0
    0.0000    0.0000    0.0000 N   0  0
    0.0000    0.0000    0.0000 O   0  0
    0.0000    0.0000    0.0000 O   0  0
  1  2  1  0
  2  3  2  0
  2  4  1  0
  4  5  1  0
  5  6  2  3
  6  7  1  0
  7  8  2  3
  8  9  1  0
  9 10  2  3
 10 11  1  0
 11  7  1  0
 10 12  1  0
 12 13  2  0
 12 14  2  0
M  END
> <Name>
NITROFURAZONE

> <SMILES>
NC(=O)NN=Cc1ccc(o1)N(=O)=O

> <Reference>
NTP/TR-337

> <Id>
59-87-0

> <Actual Value>
NEG

> <Predicted Value>
0.002 NEG

> <Used>
1

> <Status>
Non-Carcinogen

> <CanonicalTautomer>
Yes

> <NumberOfTautomers>
2

> <iscarc>
0

$$$$
CHLORDANE
  SciTegic06161615512D

 18 20  0  0  0  0            999 V2000
    0.0000    0.0000    0.0000 Cl  0  0
    0.0000    0.0000    0.0000 C   0  0
    0.0000    0.0000    0.0000 C   0  0
    0.0000    0.0000    0.0000 C   0  0
    0.0000    0.0000    0.0000 C   0  0
    0.0000    0.0000    0.0000 C   0  0
    0.0000    0.0000    0.0000 Cl  0  0
    0.0000    0.0000    0.0000 C   0  0
    0.0000    0.0000    0.0000 Cl  0  0
    0.0000    0.0000    0.0000 C   0  0
    0.0000    0.0000    0.0000 C   0  0
    0.0000    0.0000    0.0000 Cl  0  0
    0.0000    0.0000    0.0000 C   0  0
    0.0000    0.0000    0.0000 Cl  0  0
    0.0000    0.0000    0.0000 C   0  0
    0.0000    0.0000    0.0000 Cl  0  0
    0.0000    0.0000    0.0000 Cl  0  0
    0.0000    0.0000    0.0000 Cl  0  0
  1  2  1  0
  2  3  1  0
  3  4  1  0
  4  5  1  0
  5  6  1  0
  6  2  1  0
  6  7  1  0
  5  8  1  0
  8  9  1  0
  8 10  1  0
 10 11  2  3
 11 12  1  0
 11 13  1  0
 13  4  1  0
 13 14  1  0
 13 15  1  0
 15  8  1  0
 15 16  1  0
 15 17  1  0
 10 18  1  0
M  END
> <Name>
CHLORDANE

> <SMILES>
ClC1CC2C(C1Cl)C3(Cl)C(=C(Cl)C2(Cl)C3(Cl)Cl)Cl

> <Reference>
NTP/TR-8

> <Id>
57-74-9

> <Actual Value>
POS

> <Predicted Value>
1.000 POS

> <Used>
1

> <Status>
Carcinogen

> <iscarc>
1

$$$$
ROTENONE
  SciTegic06161615512D

 29 33  0  0  0  0            999 V2000
    0.0000    0.0000    0.0000 C   0  0
    0.0000    0.0000    0.0000 O   0  0
    0.0000    0.0000    0.0000 C   0  0
    0.0000    0.0000    0.0000 C   0  0
    0.0000    0.0000    0.0000 C   0  0
    0.0000    0.0000    0.0000 O   0  0
    0.0000    0.0000    0.0000 C   0  0
    0.0000    0.0000    0.0000 C   0  0
    0.0000    0.0000    0.0000 O   0  0
    0.0000    0.0000    0.0000 C   0  0
    0.0000    0.0000    0.0000 C   0  0
    0.0000    0.0000    0.0000 C   0  0
    0.0000    0.0000    0.0000 C   0  0
    0.0000    0.0000    0.0000 O   0  0
    0.0000    0.0000    0.0000 C   0  0
    0.0000    0.0000    0.0000 C   0  0
    0.0000    0.0000    0.0000 C   0  0
    0.0000    0.0000    0.0000 C   0  0
    0.0000    0.0000    0.0000 C   0  0
    0.0000    0.0000    0.0000 O   0  0
    0.0000    0.0000    0.0000 C   0  0
    0.0000    0.0000    0.0000 C   0  0
    0.0000    0.0000    0.0000 C   0  0
    0.0000    0.0000    0.0000 C   0  0
    0.0000    0.0000    0.0000 O   0  0
    0.0000    0.0000    0.0000 C   0  0
    0.0000    0.0000    0.0000 C   0  0
    0.0000    0.0000    0.0000 C   0  0
    0.0000    0.0000    0.0000 C   0  0
  1  2  1  0
  2  3  1  0
  3  4  2  3
  4  5  1  0
  5  6  1  0
  6  7  1  0
  7  8  1  0
  8  9  1  0
  9 10  1  0
 10 11  2  3
 11 12  1  0
 12 13  1  0
 13 14  1  0
 14 15  1  0
 15 11  1  0
 15 16  2  3
 16 17  1  0
 17 18  2  3
 18 10  1  0
 18 19  1  0
 19 20  2  0
 19 21  1  0
 21  8  1  0
 21 22  1  0
 22  5  2  3
 22 23  1  0
 23 24  2  3
 24  3  1  0
 24 25  1  0
 25 26  1  0
 13 27  1  0
 27 28  1  0
 27 29  2  0
M  END
> <Name>
ROTENONE

> <SMILES>
COc5cc4OCC3Oc2c1CC(Oc1ccc2C(=O)C3c4cc5OC)C(C)=C

> <Reference>
NTP/TR-320

> <Id>
83-79-4

> <Actual Value>
NEG

> <Predicted Value>
0.000 NEG

> <Used>
1

> <Status>
Non-Carcinogen

> <iscarc>
0

$$$$
p-QUINONE DIOXIME
  SciTegic06161615512D

 10 10  0  0  0  0            999 V2000
    0.0000    0.0000    0.0000 O   0  0
    0.0000    0.0000    0.0000 N   0  0
    0.0000    0.0000    0.0000 C   0  0
    0.0000    0.0000    0.0000 C   0  0
    0.0000    0.0000    0.0000 C   0  0
    0.0000    0.0000    0.0000 C   0  0
    0.0000    0.0000    0.0000 C   0  0
    0.0000    0.0000    0.0000 C   0  0
    0.0000    0.0000    0.0000 N   0  0
    0.0000    0.0000    0.0000 O   0  0
  1  2  2  0
  2  3  1  0
  3  4  1  0
  4  5  2  3
  5  6  1  0
  6  7  1  0
  7  8  2  3
  8  3  1  0
  6  9  1  0
  9 10  2  0
M  END
> <Name>
p-QUINONE DIOXIME

> <SMILES>
O=NC1C=CC(C=C1)N=O

> <Reference>
NTP/TR-179

> <Id>
105-11-3

> <Actual Value>
NEG

> <Predicted Value>
0.001 NEG

> <Used>
1

> <Status>
Non-Carcinogen

> <iscarc>
0

$$$$
PHENESTERIN
  SciTegic06161615512D

 44 48  0  0  0  0            999 V2000
    0.0000    0.0000    0.0000 C   0  0
    0.0000    0.0000    0.0000 C   0  0
    0.0000    0.0000    0.0000 C   0  0
    0.0000    0.0000    0.0000 C   0  0
    0.0000    0.0000    0.0000 C   0  0
    0.0000    0.0000    0.0000 C   0  0
    0.0000    0.0000    0.0000 C   0  0
    0.0000    0.0000    0.0000 C   0  0
    0.0000    0.0000    0.0000 C   0  0
    0.0000    0.0000    0.0000 C   0  0
    0.0000    0.0000    0.0000 C   0  0
    0.0000    0.0000    0.0000 C   0  0
    0.0000    0.0000    0.0000 C   0  0
    0.0000    0.0000    0.0000 C   0  0
    0.0000    0.0000    0.0000 C   0  0
    0.0000    0.0000    0.0000 C   0  0
    0.0000    0.0000    0.0000 C   0  0
    0.0000    0.0000    0.0000 C   0  0
    0.0000    0.0000    0.0000 C   0  0
    0.0000    0.0000    0.0000 C   0  0
    0.0000    0.0000    0.0000 C   0  0
    0.0000    0.0000    0.0000 C   0  0
    0.0000    0.0000    0.0000 C   0  0
    0.0000    0.0000    0.0000 C   0  0
    0.0000    0.0000    0.0000 C   0  0
    0.0000    0.0000    0.0000 C   0  0
    0.0000    0.0000    0.0000 C   0  0
    0.0000    0.0000    0.0000 O   0  0
    0.0000    0.0000    0.0000 C   0  0
    0.0000    0.0000    0.0000 O   0  0
    0.0000    0.0000    0.0000 C   0  0
    0.0000    0.0000    0.0000 C   0  0
    0.0000    0.0000    0.0000 C   0  0
    0.0000    0.0000    0.0000 C   0  0
    0.0000    0.0000    0.0000 C   0  0
    0.0000    0.0000    0.0000 C   0  0
    0.0000    0.0000    0.0000 C   0  0
    0.0000    0.0000    0.0000 N   0  0
    0.0000    0.0000    0.0000 C   0  0
    0.0000    0.0000    0.0000 C   0  0
    0.0000    0.0000    0.0000 Cl  0  0
    0.0000    0.0000    0.0000 C   0  0
    0.0000    0.0000    0.0000 C   0  0
    0.0000    0.0000    0.0000 Cl  0  0
  1  2  1  0
  2  3  1  0
  2  4  1  0
  4  5  1  0
  5  6  1  0
  6  7  1  0
  7  8  1  0
  7  9  1  0
  9 10  1  0
 10 11  1  0
 11 12  1  0
 12 13  1  0
 13 14  1  0
 14 15  1  0
 15 16  2  3
 16 17  1  0
 17 18  1  0
 18 19  1  0
 19 20  1  0
 20 21  1  0
 21 16  1  0
 21 22  1  0
 21 23  1  0
 23 13  1  0
 23 24  1  0
 24 25  1  0
 25 26  1  0
 26  9  1  0
 26 12  1  0
 26 27  1  0
 18 28  1  0
 28 29  1  0
 29 30  2  0
 29 31  1  0
 31 32  1  0
 32 33  2  3
 33 34  1  0
 34 35  2  3
 35 36  1  0
 36 37  2  3
 37 32  1  0
 35 38  1  0
 38 39  1  0
 39 40  1  0
 40 41  1  0
 38 42  1  0
 42 43  1  0
 43 44  1  0
M  END
> <Name>
PHENESTERIN

> <SMILES>
CC(C)CCCC(C)C3CCC4C2CC=C1CC(CCC1(C)C2CCC34C)OC(=O)Cc5ccc(cc5)N(CCCl)CCCl

> <Reference>
NTP/TR-60

> <Id>
3546-10-9

> <Actual Value>
POS

> <Predicted Value>
1.000 POS

> <Used>
1

> <Status>
Carcinogen

> <iscarc>
1

$$$$
NITROFURANTOIN
  SciTegic06161615512D

 17 18  0  0  0  0            999 V2000
    0.0000    0.0000    0.0000 O   0  0
    0.0000    0.0000    0.0000 C   0  0
    0.0000    0.0000    0.0000 C   0  0
    0.0000    0.0000    0.0000 N   0  0
    0.0000    0.0000    0.0000 N   0  0
    0.0000    0.0000    0.0000 C   0  0
    0.0000    0.0000    0.0000 C   0  0
    0.0000    0.0000    0.0000 C   0  0
    0.0000    0.0000    0.0000 C   0  0
    0.0000    0.0000    0.0000 C   0  0
    0.0000    0.0000    0.0000 O   0  0
    0.0000    0.0000    0.0000 N   0  0
    0.0000    0.0000    0.0000 O   0  0
    0.0000    0.0000    0.0000 O   0  0
    0.0000    0.0000    0.0000 C   0  0
    0.0000    0.0000    0.0000 O   0  0
    0.0000    0.0000    0.0000 N   0  0
  1  2  2  0
  2  3  1  0
  3  4  1  0
  4  5  1  0
  5  6  2  3
  6  7  1  0
  7  8  2  3
  8  9  1  0
  9 10  2  3
 10 11  1  0
 11  7  1  0
 10 12  1  0
 12 13  2  0
 12 14  2  0
  4 15  1  0
 15 16  2  0
 15 17  1  0
 17  2  1  0
M  END
> <Name>
NITROFURANTOIN

> <SMILES>
O=C2CN(N=Cc1ccc(o1)N(=O)=O)C(=O)N2

> <Reference>
NTP/TR-341

> <Id>
67-20-9

> <Actual Value>
NEG

> <Predicted Value>
0.000 NEG

> <Used>
1

> <Status>
Non-Carcinogen

> <CanonicalTautomer>
Yes

> <NumberOfTautomers>
3

> <iscarc>
0

$$$$
FUROSEMIDE
  SciTegic06161615512D

 21 22  0  0  0  0            999 V2000
    0.0000    0.0000    0.0000 N   0  0
    0.0000    0.0000    0.0000 S   0  0
    0.0000    0.0000    0.0000 O   0  0
    0.0000    0.0000    0.0000 O   0  0
    0.0000    0.0000    0.0000 C   0  0
    0.0000    0.0000    0.0000 C   0  0
    0.0000    0.0000    0.0000 C   0  0
    0.0000    0.0000    0.0000 C   0  0
    0.0000    0.0000    0.0000 O   0  0
    0.0000    0.0000    0.0000 O   0  0
    0.0000    0.0000    0.0000 C   0  0
    0.0000    0.0000    0.0000 N   0  0
    0.0000    0.0000    0.0000 C   0  0
    0.0000    0.0000    0.0000 C   0  0
    0.0000    0.0000    0.0000 C   0  0
    0.0000    0.0000    0.0000 C   0  0
    0.0000    0.0000    0.0000 C   0  0
    0.0000    0.0000    0.0000 O   0  0
    0.0000    0.0000    0.0000 C   0  0
    0.0000    0.0000    0.0000 C   0  0
    0.0000    0.0000    0.0000 Cl  0  0
  1  2  1  0
  2  3  2  0
  2  4  2  0
  2  5  1  0
  5  6  2  3
  6  7  1  0
  7  8  1  0
  8  9  1  0
  8 10  2  0
  7 11  2  3
 11 12  1  0
 12 13  1  0
 13 14  1  0
 14 15  2  3
 15 16  1  0
 16 17  2  3
 17 18  1  0
 18 14  1  0
 11 19  1  0
 19 20  2  3
 20  5  1  0
 20 21  1  0
M  END
> <Name>
FUROSEMIDE

> <SMILES>
NS(=O)(=O)c2cc(C(O)=O)c(NCc1ccco1)cc2Cl

> <Reference>
NTP/TR-356

> <Id>
54-31-9

> <Actual Value>
NEG

> <Predicted Value>
0.000 NEG

> <Used>
1

> <Status>
Non-Carcinogen

> <iscarc>
0

$$$$
2;3;5;6-TETRACHLORO-4-NITROANISOLE
  SciTegic06161615512D

 15 15  0  0  0  0            999 V2000
    0.0000    0.0000    0.0000 C   0  0
    0.0000    0.0000    0.0000 O   0  0
    0.0000    0.0000    0.0000 C   0  0
    0.0000    0.0000    0.0000 C   0  0
    0.0000    0.0000    0.0000 Cl  0  0
    0.0000    0.0000    0.0000 C   0  0
    0.0000    0.0000    0.0000 Cl  0  0
    0.0000    0.0000    0.0000 C   0  0
    0.0000    0.0000    0.0000 N   0  0
    0.0000    0.0000    0.0000 O   0  0
    0.0000    0.0000    0.0000 O   0  0
    0.0000    0.0000    0.0000 C   0  0
    0.0000    0.0000    0.0000 Cl  0  0
    0.0000    0.0000    0.0000 C   0  0
    0.0000    0.0000    0.0000 Cl  0  0
  1  2  1  0
  2  3  1  0
  3  4  2  3
  4  5  1  0
  4  6  1  0
  6  7  1  0
  6  8  2  3
  8  9  1  0
  9 10  2  0
  9 11  2  0
  8 12  1  0
 12 13  1  0
 12 14  2  3
 14  3  1  0
 14 15  1  0
M  END
> <Name>
2;3;5;6-TETRACHLORO-4-NITROANISOLE

> <SMILES>
COc1c(Cl)c(Cl)c(N(=O)=O)c(Cl)c1Cl

> <Reference>
NTP/TR-114

> <Id>
2438-88-2

> <Actual Value>
NEG

> <Predicted Value>
0.000 NEG

> <Used>
1

> <Status>
Non-Carcinogen

> <iscarc>
0

$$$$
TRIS(2;3-DIBROMOPROPYL)PHOSPHATE
  SciTegic06161615512D

 20 19  0  0  0  0            999 V2000
    0.0000    0.0000    0.0000 Br  0  0
    0.0000    0.0000    0.0000 C   0  0
    0.0000    0.0000    0.0000 C   0  0
    0.0000    0.0000    0.0000 Br  0  0
    0.0000    0.0000    0.0000 C   0  0
    0.0000    0.0000    0.0000 O   0  0
    0.0000    0.0000    0.0000 P   0  0
    0.0000    0.0000    0.0000 O   0  0
    0.0000    0.0000    0.0000 O   0  0
    0.0000    0.0000    0.0000 C   0  0
    0.0000    0.0000    0.0000 C   0  0
    0.0000    0.0000    0.0000 Br  0  0
    0.0000    0.0000    0.0000 C   0  0
    0.0000    0.0000    0.0000 Br  0  0
    0.0000    0.0000    0.0000 O   0  0
    0.0000    0.0000    0.0000 C   0  0
    0.0000    0.0000    0.0000 C   0  0
    0.0000    0.0000    0.0000 Br  0  0
    0.0000    0.0000    0.0000 C   0  0
    0.0000    0.0000    0.0000 Br  0  0
  1  2  1  0
  2  3  1  0
  3  4  1  0
  3  5  1  0
  5  6  1  0
  6  7  1  0
  7  8  2  0
  7  9  1  0
  9 10  1  0
 10 11  1  0
 11 12  1  0
 11 13  1  0
 13 14  1  0
  7 15  1  0
 15 16  1  0
 16 17  1  0
 17 18  1  0
 17 19  1  0
 19 20  1  0
M  END
> <Name>
TRIS(2;3-DIBROMOPROPYL)PHOSPHATE

> <SMILES>
BrCC(Br)COP(=O)(OCC(Br)CBr)OCC(Br)CBr

> <Reference>
NTP/TR-76

> <Id>
126-72-7

> <Actual Value>
POS

> <Predicted Value>
1.000 POS

> <Used>
1

> <Status>
Carcinogen

> <iscarc>
1

$$$$
ERYTHROMYCIN STEARATE
  SciTegic06161615512D

 51 53  0  0  0  0            999 V2000
    0.0000    0.0000    0.0000 C   0  0
    0.0000    0.0000    0.0000 C   0  0
    0.0000    0.0000    0.0000 C   0  0
    0.0000    0.0000    0.0000 O   0  0
    0.0000    0.0000    0.0000 C   0  0
    0.0000    0.0000    0.0000 O   0  0
    0.0000    0.0000    0.0000 C   0  0
    0.0000    0.0000    0.0000 C   0  0
    0.0000    0.0000    0.0000 C   0  0
    0.0000    0.0000    0.0000 O   0  0
    0.0000    0.0000    0.0000 C   0  0
    0.0000    0.0000    0.0000 C   0  0
    0.0000    0.0000    0.0000 C   0  0
    0.0000    0.0000    0.0000 C   0  0
    0.0000    0.0000    0.0000 O   0  0
    0.0000    0.0000    0.0000 C   0  0
    0.0000    0.0000    0.0000 C   0  0
    0.0000    0.0000    0.0000 O   0  0
    0.0000    0.0000    0.0000 C   0  0
    0.0000    0.0000    0.0000 C   0  0
    0.0000    0.0000    0.0000 O   0  0
    0.0000    0.0000    0.0000 C   0  0
    0.0000    0.0000    0.0000 C   0  0
    0.0000    0.0000    0.0000 C   0  0
    0.0000    0.0000    0.0000 O   0  0
    0.0000    0.0000    0.0000 C   0  0
    0.0000    0.0000    0.0000 O   0  0
    0.0000    0.0000    0.0000 C   0  0
    0.0000    0.0000    0.0000 C   0  0
    0.0000    0.0000    0.0000 C   0  0
    0.0000    0.0000    0.0000 C   0  0
    0.0000    0.0000    0.0000 C   0  0
    0.0000    0.0000    0.0000 O   0  0
    0.0000    0.0000    0.0000 N   0  0
    0.0000    0.0000    0.0000 C   0  0
    0.0000    0.0000    0.0000 C   0  0
    0.0000    0.0000    0.0000 C   0  0
    0.0000    0.0000    0.0000 C   0  0
    0.0000    0.0000    0.0000 O   0  0
    0.0000    0.0000    0.0000 C   0  0
    0.0000    0.0000    0.0000 C   0  0
    0.0000    0.0000    0.0000 C   0  0
    0.0000    0.0000    0.0000 C   0  0
    0.0000    0.0000    0.0000 O   0  0
    0.0000    0.0000    0.0000 C   0  0
    0.0000    0.0000    0.0000 C   0  0
    0.0000    0.0000    0.0000 C   0  0
    0.0000    0.0000    0.0000 O   0  0
    0.0000    0.0000    0.0000 C   0  0
    0.0000    0.0000    0.0000 C   0  0
    0.0000    0.0000    0.0000 O   0  0
  1  2  1  0
  2  3  1  0
  3  4  1  0
  4  5  1  0
  5  6  2  0
  5  7  1  0
  7  8  1  0
  7  9  1  0
  9 10  1  0
 10 11  1  0
 11 12  1  0
 12 13  1  0
 13 14  1  0
 13 15  1  0
 15 16  1  0
 13 17  1  0
 17 18  1  0
 17 19  1  0
 19 20  1  0
 19 21  1  0
 21 11  1  0
  9 22  1  0
 22 23  1  0
 22 24  1  0
 24 25  1  0
 25 26  1  0
 26 27  1  0
 27 28  1  0
 28 29  1  0
 28 30  1  0
 30 31  1  0
 31 32  1  0
 32 26  1  0
 32 33  1  0
 31 34  1  0
 34 35  1  0
 34 36  1  0
 24 37  1  0
 37 38  1  0
 37 39  1  0
 37 40  1  0
 40 41  1  0
 41 42  1  0
 41 43  1  0
 43 44  2  0
 43 45  1  0
 45 46  1  0
 45 47  1  0
 47 48  1  0
 47 49  1  0
 49  3  1  0
 49 50  1  0
 49 51  1  0
M  END
> <Name>
ERYTHROMYCIN STEARATE

> <SMILES>
CCC3OC(=O)C(C)C(OC1CC(C)(OC)C(O)C(C)O1)C(C)C(OC2OC(C)CC(C2O)N(C)C)C(C)(O)CC(C)C(=O)C(C)C(O)C3(C)O

> <Reference>
NTP/TR-338

> <Id>
643-22-1

> <Actual Value>
NEG

> <Predicted Value>
0.000 NEG

> <Used>
1

> <Status>
Non-Carcinogen

> <iscarc>
0

$$$$
CHLORENDIC ACID
  SciTegic06161615512D

 19 20  0  0  0  0            999 V2000
    0.0000    0.0000    0.0000 O   0  0
    0.0000    0.0000    0.0000 C   0  0
    0.0000    0.0000    0.0000 O   0  0
    0.0000    0.0000    0.0000 C   0  0
    0.0000    0.0000    0.0000 C   0  0
    0.0000    0.0000    0.0000 C   0  0
    0.0000    0.0000    0.0000 O   0  0
    0.0000    0.0000    0.0000 O   0  0
    0.0000    0.0000    0.0000 C   0  0
    0.0000    0.0000    0.0000 Cl  0  0
    0.0000    0.0000    0.0000 C   0  0
    0.0000    0.0000    0.0000 Cl  0  0
    0.0000    0.0000    0.0000 C   0  0
    0.0000    0.0000    0.0000 Cl  0  0
    0.0000    0.0000    0.0000 C   0  0
    0.0000    0.0000    0.0000 Cl  0  0
    0.0000    0.0000    0.0000 C   0  0
    0.0000    0.0000    0.0000 Cl  0  0
    0.0000    0.0000    0.0000 Cl  0  0
  1  2  1  0
  2  3  2  0
  2  4  1  0
  4  5  1  0
  5  6  1  0
  6  7  1  0
  6  8  2  0
  5  9  1  0
  9 10  1  0
  9 11  1  0
 11 12  1  0
 11 13  1  0
 13 14  1  0
 13 15  1  0
 15  4  1  0
 15 16  1  0
 15 17  1  0
 17  9  1  0
 17 18  1  0
 17 19  1  0
M  END
> <Name>
CHLORENDIC ACID

> <SMILES>
OC(=O)C1C(C(O)=O)C2(Cl)C(Cl)C(Cl)C1(Cl)C2(Cl)Cl

> <Reference>
NTP/TR-304

> <Id>
115-28-6

> <Actual Value>
POS

> <Predicted Value>
1.000 POS

> <Used>
1

> <Status>
Carcinogen

> <iscarc>
1

$$$$
RHODAMINE 6G
  SciTegic06161615512D

 33 36  0  0  0  0            999 V2000
    0.0000    0.0000    0.0000 C   0  0
    0.0000    0.0000    0.0000 C   0  0
    0.0000    0.0000    0.0000 N   0  0
    0.0000    0.0000    0.0000 C   0  0
    0.0000    0.0000    0.0000 C   0  0
    0.0000    0.0000    0.0000 C   0  0
    0.0000    0.0000    0.0000 O   0  0
    0.0000    0.0000    0.0000 C   0  0
    0.0000    0.0000    0.0000 C   0  0
    0.0000    0.0000    0.0000 C   0  0
    0.0000    0.0000    0.0000 N   0  0
    0.0000    0.0000    0.0000 C   0  0
    0.0000    0.0000    0.0000 C   0  0
    0.0000    0.0000    0.0000 C   0  0
    0.0000    0.0000    0.0000 C   0  0
    0.0000    0.0000    0.0000 C   0  0
    0.0000    0.0000    0.0000 C   0  0
    0.0000    0.0000    0.0000 C   0  0
    0.0000    0.0000    0.0000 C   0  0
    0.0000    0.0000    0.0000 C   0  0
    0.0000    0.0000    0.0000 C   0  0
    0.0000    0.0000    0.0000 C   0  0
    0.0000    0.0000    0.0000 C   0  0
    0.0000    0.0000    0.0000 C   0  0
    0.0000    0.0000    0.0000 C   0  0
    0.0000    0.0000    0.0000 O   0  0
    0.0000    0.0000    0.0000 O   0  0
    0.0000    0.0000    0.0000 C   0  0
    0.0000    0.0000    0.0000 C   0  0
    0.0000    0.0000    0.0000 C   0  0
    0.0000    0.0000    0.0000 C   0  0
    0.0000    0.0000    0.0000 C   0  0
    0.0000    0.0000    0.0000 C   0  0
  1  2  1  0
  2  3  1  0
  3  4  2  3
  4  5  1  0
  5  6  2  3
  6  7  1  0
  7  8  1  0
  8  9  2  3
  9 10  1  0
 10 11  1  0
 11 12  1  0
 12 13  1  0
 10 14  2  3
 14 15  1  0
 14 16  1  0
 16 17  2  3
 17  8  1  0
 17 18  1  0
 18 19  1  0
 19 20  2  3
 20 21  1  0
 21 22  2  3
 22 23  1  0
 23 24  2  3
 24 19  1  0
 24 25  1  0
 25 26  2  0
 25 27  1  0
 27 28  1  0
 28 29  1  0
 18 30  2  3
 30  6  1  0
 30 31  1  0
 31 32  2  3
 32  4  1  0
 32 33  1  0
M  END
> <Name>
RHODAMINE 6G

> <SMILES>
CCNc4cc3oc1cc(=NCC)c(C)cc1c(c2ccccc2C(=O)OCC)c3cc4C

> <Reference>
NTP/TR-364

> <Id>
989-38-8

> <Actual Value>
NEG

> <Predicted Value>
0.000 NEG

> <Used>
1

> <Status>
Non-Carcinogen

> <CanonicalTautomer>
Yes

> <NumberOfTautomers>
2

> <iscarc>
0

$$$$
ESTRADIOL MUSTARD
  SciTegic06161615512D

 50 55  0  0  0  0            999 V2000
    0.0000    0.0000    0.0000 C   0  0
    0.0000    0.0000    0.0000 C   0  0
    0.0000    0.0000    0.0000 C   0  0
    0.0000    0.0000    0.0000 C   0  0
    0.0000    0.0000    0.0000 C   0  0
    0.0000    0.0000    0.0000 C   0  0
    0.0000    0.0000    0.0000 C   0  0
    0.0000    0.0000    0.0000 C   0  0
    0.0000    0.0000    0.0000 C   0  0
    0.0000    0.0000    0.0000 C   0  0
    0.0000    0.0000    0.0000 C   0  0
    0.0000    0.0000    0.0000 O   0  0
    0.0000    0.0000    0.0000 C   0  0
    0.0000    0.0000    0.0000 O   0  0
    0.0000    0.0000    0.0000 C   0  0
    0.0000    0.0000    0.0000 C   0  0
    0.0000    0.0000    0.0000 C   0  0
    0.0000    0.0000    0.0000 C   0  0
    0.0000    0.0000    0.0000 C   0  0
    0.0000    0.0000    0.0000 C   0  0
    0.0000    0.0000    0.0000 N   0  0
    0.0000    0.0000    0.0000 C   0  0
    0.0000    0.0000    0.0000 C   0  0
    0.0000    0.0000    0.0000 Cl  0  0
    0.0000    0.0000    0.0000 C   0  0
    0.0000    0.0000    0.0000 C   0  0
    0.0000    0.0000    0.0000 Cl  0  0
    0.0000    0.0000    0.0000 C   0  0
    0.0000    0.0000    0.0000 C   0  0
    0.0000    0.0000    0.0000 C   0  0
    0.0000    0.0000    0.0000 C   0  0
    0.0000    0.0000    0.0000 C   0  0
    0.0000    0.0000    0.0000 C   0  0
    0.0000    0.0000    0.0000 C   0  0
    0.0000    0.0000    0.0000 O   0  0
    0.0000    0.0000    0.0000 C   0  0
    0.0000    0.0000    0.0000 O   0  0
    0.0000    0.0000    0.0000 C   0  0
    0.0000    0.0000    0.0000 C   0  0
    0.0000    0.0000    0.0000 C   0  0
    0.0000    0.0000    0.0000 C   0  0
    0.0000    0.0000    0.0000 C   0  0
    0.0000    0.0000    0.0000 C   0  0
    0.0000    0.0000    0.0000 N   0  0
    0.0000    0.0000    0.0000 C   0  0
    0.0000    0.0000    0.0000 C   0  0
    0.0000    0.0000    0.0000 Cl  0  0
    0.0000    0.0000    0.0000 C   0  0
    0.0000    0.0000    0.0000 C   0  0
    0.0000    0.0000    0.0000 Cl  0  0
  1  2  1  0
  2  3  1  0
  3  4  1  0
  4  5  1  0
  5  6  1  0
  6  7  1  0
  7  8  1  0
  8  9  1  0
  9 10  2  3
 10 11  1  0
 11 12  1  0
 12 13  1  0
 13 14  2  0
 13 15  1  0
 15 16  2  3
 16 17  1  0
 17 18  2  3
 18 19  1  0
 19 20  2  3
 20 15  1  0
 18 21  1  0
 21 22  1  0
 22 23  1  0
 23 24  1  0
 21 25  1  0
 25 26  1  0
 26 27  1  0
 11 28  2  3
 28 29  1  0
 29 30  2  3
 30  5  1  0
 30  9  1  0
  6 31  1  0
 31  2  1  0
 31 32  1  0
 32 33  1  0
 33 34  1  0
 34  2  1  0
 34 35  1  0
 35 36  1  0
 36 37  2  0
 36 38  1  0
 38 39  2  3
 39 40  1  0
 40 41  2  3
 41 42  1  0
 42 43  2  3
 43 38  1  0
 41 44  1  0
 44 45  1  0
 45 46  1  0
 46 47  1  0
 44 48  1  0
 48 49  1  0
 49 50  1  0
M  END
> <Name>
ESTRADIOL MUSTARD

> <SMILES>
CC45CCC2C(CCc3cc(OC(=O)c1ccc(cc1)N(CCCl)CCCl)ccc23)C4CCC5OC(=O)c6ccc(cc6)N(CCCl)CCCl

> <Reference>
NTP/TR-59

> <Id>
22966-79-6

> <Actual Value>
POS

> <Predicted Value>
1.000 POS

> <Used>
1

> <Status>
Carcinogen

> <iscarc>
1

$$$$
PENTACHLORONITROBENZENE
  SciTegic06161615512D

 14 14  0  0  0  0            999 V2000
    0.0000    0.0000    0.0000 Cl  0  0
    0.0000    0.0000    0.0000 C   0  0
    0.0000    0.0000    0.0000 C   0  0
    0.0000    0.0000    0.0000 Cl  0  0
    0.0000    0.0000    0.0000 C   0  0
    0.0000    0.0000    0.0000 Cl  0  0
    0.0000    0.0000    0.0000 C   0  0
    0.0000    0.0000    0.0000 N   0  0
    0.0000    0.0000    0.0000 O   0  0
    0.0000    0.0000    0.0000 O   0  0
    0.0000    0.0000    0.0000 C   0  0
    0.0000    0.0000    0.0000 Cl  0  0
    0.0000    0.0000    0.0000 C   0  0
    0.0000    0.0000    0.0000 Cl  0  0
  1  2  1  0
  2  3  2  3
  3  4  1  0
  3  5  1  0
  5  6  1  0
  5  7  2  3
  7  8  1  0
  8  9  2  0
  8 10  2  0
  7 11  1  0
 11 12  1  0
 11 13  2  3
 13  2  1  0
 13 14  1  0
M  END
> <Name>
PENTACHLORONITROBENZENE

> <SMILES>
Clc1c(Cl)c(Cl)c(N(=O)=O)c(Cl)c1Cl

> <Reference>
NTP/TR-61

> <Id>
82-68-8

> <Actual Value>
NEG

> <Predicted Value>
0.000 NEG

> <Used>
1

> <Status>
Non-Carcinogen

> <iscarc>
0

$$$$
RESERPINE
  SciTegic06161615512D

 44 49  0  0  0  0            999 V2000
    0.0000    0.0000    0.0000 C   0  0
    0.0000    0.0000    0.0000 O   0  0
    0.0000    0.0000    0.0000 C   0  0
    0.0000    0.0000    0.0000 C   0  0
    0.0000    0.0000    0.0000 C   0  0
    0.0000    0.0000    0.0000 C   0  0
    0.0000    0.0000    0.0000 C   0  0
    0.0000    0.0000    0.0000 N   0  0
    0.0000    0.0000    0.0000 C   0  0
    0.0000    0.0000    0.0000 C   0  0
    0.0000    0.0000    0.0000 C   0  0
    0.0000    0.0000    0.0000 C   0  0
    0.0000    0.0000    0.0000 N   0  0
    0.0000    0.0000    0.0000 C   0  0
    0.0000    0.0000    0.0000 C   0  0
    0.0000    0.0000    0.0000 C   0  0
    0.0000    0.0000    0.0000 O   0  0
    0.0000    0.0000    0.0000 C   0  0
    0.0000    0.0000    0.0000 C   0  0
    0.0000    0.0000    0.0000 C   0  0
    0.0000    0.0000    0.0000 C   0  0
    0.0000    0.0000    0.0000 C   0  0
    0.0000    0.0000    0.0000 C   0  0
    0.0000    0.0000    0.0000 C   0  0
    0.0000    0.0000    0.0000 C   0  0
    0.0000    0.0000    0.0000 C   0  0
    0.0000    0.0000    0.0000 O   0  0
    0.0000    0.0000    0.0000 O   0  0
    0.0000    0.0000    0.0000 C   0  0
    0.0000    0.0000    0.0000 O   0  0
    0.0000    0.0000    0.0000 C   0  0
    0.0000    0.0000    0.0000 O   0  0
    0.0000    0.0000    0.0000 C   0  0
    0.0000    0.0000    0.0000 C   0  0
    0.0000    0.0000    0.0000 C   0  0
    0.0000    0.0000    0.0000 O   0  0
    0.0000    0.0000    0.0000 C   0  0
    0.0000    0.0000    0.0000 C   0  0
    0.0000    0.0000    0.0000 O   0  0
    0.0000    0.0000    0.0000 C   0  0
    0.0000    0.0000    0.0000 C   0  0
    0.0000    0.0000    0.0000 O   0  0
    0.0000    0.0000    0.0000 C   0  0
    0.0000    0.0000    0.0000 C   0  0
  1  2  1  0
  2  3  1  0
  3  4  1  0
  4  5  1  0
  5  6  1  0
  6  7  1  0
  7  8  1  0
  8  9  1  0
  9 10  1  0
 10 11  1  0
 11 12  2  3
 12 13  1  0
 13 14  1  0
 14 15  2  3
 15 16  1  0
 16 17  1  0
 17 18  1  0
 16 19  2  3
 19 20  1  0
 20 21  2  3
 21 11  1  0
 21 14  1  0
 12 22  1  0
 22  8  1  0
 22 23  1  0
 23 24  1  0
 24  6  1  0
 24 25  1  0
 25  3  1  0
 25 26  1  0
 26 27  2  0
 26 28  1  0
 28 29  1  0
  4 30  1  0
 30 31  1  0
 31 32  2  0
 31 33  1  0
 33 34  2  3
 34 35  1  0
 35 36  1  0
 36 37  1  0
 35 38  2  3
 38 39  1  0
 39 40  1  0
 38 41  1  0
 41 42  1  0
 42 43  1  0
 41 44  2  3
 44 33  1  0
M  END
> <Name>
RESERPINE

> <SMILES>
COC5C(CC4CN3CCc1c([nH]c2cc(OC)ccc12)C3CC4C5C(=O)OC)OC(=O)c6cc(OC)c(OC)c(OC)c6

> <Reference>
NTP/TR-193

> <Id>
50-55-5

> <Actual Value>
POS

> <Predicted Value>
1.000 POS

> <Used>
1

> <Status>
Carcinogen

> <iscarc>
1

$$$$
PHENYLBUTAZONE
  SciTegic06161615512D

 23 25  0  0  0  0            999 V2000
    0.0000    0.0000    0.0000 C   0  0
    0.0000    0.0000    0.0000 C   0  0
    0.0000    0.0000    0.0000 C   0  0
    0.0000    0.0000    0.0000 C   0  0
    0.0000    0.0000    0.0000 C   0  0
    0.0000    0.0000    0.0000 C   0  0
    0.0000    0.0000    0.0000 O   0  0
    0.0000    0.0000    0.0000 N   0  0
    0.0000    0.0000    0.0000 N   0  0
    0.0000    0.0000    0.0000 C   0  0
    0.0000    0.0000    0.0000 O   0  0
    0.0000    0.0000    0.0000 C   0  0
    0.0000    0.0000    0.0000 C   0  0
    0.0000    0.0000    0.0000 C   0  0
    0.0000    0.0000    0.0000 C   0  0
    0.0000    0.0000    0.0000 C   0  0
    0.0000    0.0000    0.0000 C   0  0
    0.0000    0.0000    0.0000 C   0  0
    0.0000    0.0000    0.0000 C   0  0
    0.0000    0.0000    0.0000 C   0  0
    0.0000    0.0000    0.0000 C   0  0
    0.0000    0.0000    0.0000 C   0  0
    0.0000    0.0000    0.0000 C   0  0
  1  2  1  0
  2  3  1  0
  3  4  1  0
  4  5  1  0
  5  6  1  0
  6  7  2  0
  6  8  1  0
  8  9  1  0
  9 10  1  0
 10  5  1  0
 10 11  2  0
  9 12  1  0
 12 13  2  3
 13 14  1  0
 14 15  2  3
 15 16  1  0
 16 17  2  3
 17 12  1  0
  8 18  1  0
 18 19  2  3
 19 20  1  0
 20 21  2  3
 21 22  1  0
 22 23  2  3
 23 18  1  0
M  END
> <Name>
PHENYLBUTAZONE

> <SMILES>
CCCCC1C(=O)N(N(C1=O)c2ccccc2)c3ccccc3

> <Reference>
NTP/TR-367

> <Id>
50-33-9

> <Actual Value>
POS

> <Predicted Value>
1.000 POS

> <Used>
1

> <Status>
Carcinogen

> <iscarc>
1

$$$$
Chlorodibromomethane
  SciTegic06161615513D

  5  4  0  0  1  0            999 V2000
   21.3367  -40.0015   -0.1244 C   0  0  1  0  0  0
   21.7964  -41.2995    1.2421 Br  0  0
   20.0795  -38.9214    0.4883 Cl  0  0
   20.9665  -40.5253   -1.0180 H   0  0
   22.9100  -38.9653   -0.5875 Br  0  0
  1  2  1  1
  1  3  1  0
  1  4  1  0
  1  5  1  6
M  END
> <Name>
Chlorodibromomethane

> <Substance ID>
43

> <Synonyms>
Dibromochloromethane; Dibromochloromethane; CDBM.

> <CAS>
124-48-1

> <Reference>
NTP282

> <MolWeight>
208.28

> <Formula>
CHBr2Cl

> <SMILES>
ClC(Br)Br

> <TD50_Rat>
NP

> <TD50_Mouse>
139

> <Canc>
3

> <SAL>
1

> <Rat_Male_Canc>
1

> <Rat_Female_Canc>
1

> <Mouse_Male_Canc>
2

> <Mouse_Female_Canc>
3

> <Rat_Male_NTP>
NE

> <Rat_Female_NTP>
NE

> <Mouse_Male_NTP>
EE

> <Mouse_Female_NTP>
SE

> <Status>
Carcinogen

> <New_Data>
true

> <iscarc>
1

$$$$
HC Blue no. 1
  SciTegic06161615512D

 18 18  0  0  0  0            999 V2000
    5.3175   -1.1521    0.0000 C   0  0
    5.9758    0.0000    0.0000 O   0  0
    3.9881   -1.1521    0.0000 C   0  0
    5.3175   -3.4564    0.0000 C   0  0
    5.9758   -4.6085    0.0000 C   0  0
    3.9881   -5.7606    0.0000 C   0  0
    3.3171   -4.6085    0.0000 C   0  0
    5.3175   -5.7606    0.0000 C   0  0
    3.9881   -3.4564    0.0000 C   0  0
    5.9758   -6.9127    0.0000 N   0  0
    3.3171   -2.3042    0.0000 N   0  0
    1.9877   -2.3042    0.0000 C   0  0
    1.3294   -1.1521    0.0000 C   0  0
    0.0000   -1.1521    0.0000 O   0  0
    3.3171   -6.9127    0.0000 N   0  3
    1.9877   -6.9127    0.0000 O   0  5
    3.9881   -8.0648    0.0000 O   0  0
    7.3052   -6.9127    0.0000 C   0  0
  1  2  1  0
  1  3  1  0
  3 11  1  0
  4  5  2  0
  4  9  1  0
  5  8  1  0
  6  7  1  0
  6  8  2  0
  6 15  1  0
  7  9  2  0
  8 10  1  0
  9 11  1  0
 10 18  1  0
 11 12  1  0
 12 13  1  0
 13 14  1  0
 15 16  1  0
 15 17  2  0
M  CHG  2  15   1  16  -1
M  END
> <Name>
HC Blue no. 1

> <Substance ID>
56

> <Synonyms>
1-Methylamino-2-nitro-4-(bis-2-hydroxyethyl)aminobenzene; 2,2'-((4-(methylamino)-3-nitrophenyl)imino)bisethanol; HC Blue 1; N1,N1-Bis(2-hydroxyethyl)-N4-methyl-3-nitro-p-phenylenediamine; N4,N4-bis(2-
hydroxyethyl)-N1-methyl-2-nitro-p-phenylenediamine; N',N'-bis(2-hydroxyethyl)-N-methyl-2-nitro-p-phenylenediamine; N,N-Bis(2-hydroxyethyl)-N'-methyl-3-nitro-p-phenylenediamine.

> <CAS>
2784-94-3

> <Reference>
NTP271

> <MolWeight>
255.27

> <Formula>
C11H17N3O4

> <SMILES>
C1(=C(C=CC(=C1)N(CCO)CCO)NC)[N+]([O-])=O

> <TD50_Rat>
702

> <TD50_Mouse>
86.3

> <Canc>
3

> <SAL>
3

> <Rat_Male_Canc>
2

> <Rat_Female_Canc>
3

> <Mouse_Male_Canc>
3

> <Mouse_Female_Canc>
3

> <Rat_Male_NTP>
EE

> <Rat_Female_NTP>
SE

> <Mouse_Male_NTP>
CE

> <Mouse_Female_NTP>
CE

> <Status>
Carcinogen

> <New_Data>
true

> <iscarc>
1

$$$$
Monuron
  SciTegic06161615512D

 13 13  0  0  0  0            999 V2000
    3.4609   -2.0030    0.0000 C   0  0
    3.4609   -0.6719    0.0000 C   0  0
    5.7555   -0.6719    0.0000 C   0  0
    5.7555   -2.0030    0.0000 C   0  0
    4.6145    0.0000    0.0000 C   0  0
    4.6145   -2.6622    0.0000 C   0  0
    2.3073   -2.6622    0.0000 N   0  0
    1.1536   -2.0030    0.0000 C   0  0
    0.0000   -2.6622    0.0000 O   0  0
    1.1536   -0.6719    0.0000 N   0  0
    6.9091    0.0000    0.0000 Cl  0  0
    2.3073    0.0000    0.0000 C   0  0
    0.0000    0.0000    0.0000 C   0  0
  1  2  2  0
  1  6  1  0
  1  7  1  0
  2  5  1  0
  3  4  1  0
  3  5  2  0
  3 11  1  0
  4  6  2  0
  7  8  1  0
  8  9  2  0
  8 10  1  0
 10 12  1  0
 10 13  1  0
M  END
> <Name>
Monuron

> <Substance ID>
60

> <Synonyms>
1,1-dimethyl-3-(p-chlorophenyl)urea; 1-(4-Chlorophenyl)-3,3-dimethylurea; 3-(para-Chlorophenyl)-1,1,dimethylurea; chlorfenidim; CMU; lirobetarex; monurex; monurox; monuruon; N'-(4-chlorophenyl)-N,N-di
methylurea; N-(p-chlorophenyl)-N',N'-dimethylurea; N,N-dimethyl-N'-(4-chlorophenyl)urea; Telvar; telvar monuron weedkiller; telvar w. monuron weedkiller.

> <CAS>
150-68-5

> <Reference>
NTP266

> <MolWeight>
198.65

> <Formula>
C9H11ClN2O

> <SMILES>
O=C(N(C)C)NC1=CC=C(C=C1)Cl

> <TD50_Rat>
131

> <TD50_Mouse>
NP

> <Canc>
3

> <SAL>
1

> <Rat_Male_Canc>
3

> <Rat_Female_Canc>
1

> <Mouse_Male_Canc>
1

> <Mouse_Female_Canc>
1

> <Rat_Male_NTP>
CE

> <Rat_Female_NTP>
NE

> <Mouse_Male_NTP>
NE

> <Mouse_Female_NTP>
NE

> <Status>
Non-Carcinogen

> <CanonicalTautomer>
Yes

> <NumberOfTautomers>
2

> <New_Data>
true

> <iscarc>
0

$$$$
Diallyl Phthalate
  SciTegic06161615512D

 18 18  0  0  0  0            999 V2000
    6.9164    0.0000    0.0000 C   0  0
    8.0628   -0.6623    0.0000 C   0  0
    6.9164   -2.6621    0.0000 C   0  0
    5.7573   -1.9998    0.0000 C   0  0
    8.0628   -1.9998    0.0000 C   0  0
    5.7573   -0.6623    0.0000 C   0  0
    4.6109   -2.6621    0.0000 C   0  0
    6.9164   -3.9868    0.0000 C   0  0
    4.6109   -3.9868    0.0000 O   0  0
    5.7573   -4.6491    0.0000 O   0  0
    3.4646   -1.9998    0.0000 O   0  0
    8.0628   -4.6491    0.0000 O   0  0
    8.0628   -5.9866    0.0000 C   0  0
    9.2219   -6.6489    0.0000 C   0  0
    2.3055   -2.6621    0.0000 C   0  0
    1.1591   -1.9998    0.0000 C   0  0
    0.0000   -2.6621    0.0000 C   0  0
    9.2219   -7.9736    0.0000 C   0  0
  1  2  2  0
  1  6  1  0
  2  5  1  0
  3  4  1  0
  3  5  2  0
  3  8  1  0
  4  6  2  0
  4  7  1  0
  7  9  2  0
  7 11  1  0
  8 10  2  0
  8 12  1  0
 11 15  1  0
 12 13  1  0
 13 14  1  0
 14 18  2  0
 15 16  1  0
 16 17  2  0
M  END
> <Name>
Diallyl Phthalate

> <Substance ID>
73

> <Synonyms>
1,2-Benzenedicarboxylic acid, di-2-propenyl ester; o-phthalic acid diallyl ester; Allyl Phthalate; diallylester phthalic acid; DAP; dapon 35; dapon r.

> <CAS>
131-17-9

> <Reference>
NTP284 & NTP242

> <MolWeight>
246.26

> <Formula>
C14H14O4

> <SMILES>
O=C(C1=C(C=CC=C1)C(=O)OCC=C)OCC=C

> <TD50_Rat>
NP

> <TD50_Mouse>
NP

> <Canc>
2

> <SAL>
1

> <Rat_Male_Canc>
1

> <Rat_Female_Canc>
2

> <Mouse_Male_Canc>
2

> <Mouse_Female_Canc>
2

> <Rat_Male_NTP>
NE

> <Rat_Female_NTP>
EE

> <Mouse_Male_NTP>
EE

> <Mouse_Female_NTP>
EE

> <Status>
Carcinogen

> <New_Data>
true

> <iscarc>
1

$$$$
2-Chloroethanol
  SciTegic06161615512D

  4  3  0  0  0  0            999 V2000
    0.0000   -0.6694    0.0000 O   0  0
    1.1493    0.0000    0.0000 C   0  0
    2.2986   -0.6694    0.0000 C   0  0
    3.4479    0.0000    0.0000 Cl  0  0
  1  2  1  0
  2  3  1  0
  3  4  1  0
M  END
> <Name>
2-Chloroethanol

> <Substance ID>
79

> <Synonyms>
2-Chloro-1-ethanol; 2-monochloroethanol; beta-chloroethyl alcohol; Chloroethanol; delta-chloroethanol; ethylene chlorohydrin; ethylene glycol, chlorohydrin; Glycol chlorohydrin; glycol monochlorohydri
n; glycomonochlorohydrin.

> <CAS>
107-07-3

> <Reference>
NTP275

> <MolWeight>
80.51

> <Formula>
C2H5ClO

> <SMILES>
OCCCl

> <TD50_Rat>
NP

> <TD50_Mouse>
NP

> <Canc>
1

> <SAL>
3

> <Rat_Male_Canc>
1

> <Rat_Female_Canc>
1

> <Mouse_Male_Canc>
1

> <Mouse_Female_Canc>
1

> <Rat_Male_NTP>
NE

> <Rat_Female_NTP>
NE

> <Mouse_Male_NTP>
NE

> <Mouse_Female_NTP>
NE

> <Status>
Non-Carcinogen

> <New_Data>
true

> <iscarc>
0

$$$$
HC Blue no. 2
  SciTegic06161615512D

 20 20  0  0  0  0            999 V2000
    4.6133   -4.6524    0.0000 C   0  0
    4.6133   -5.9816    0.0000 C   0  0
    2.3066   -5.9816    0.0000 C   0  0
    2.3066   -4.6524    0.0000 C   0  0
    3.4535   -6.6463    0.0000 C   0  0
    3.4535   -3.9878    0.0000 C   0  0
    3.4535   -2.6585    0.0000 N   0  0
    3.4535   -7.9755    0.0000 N   0  0
    2.3066   -8.6402    0.0000 C   0  0
    1.1598   -7.9755    0.0000 C   0  0
    0.0000   -8.6402    0.0000 O   0  0
    4.6133   -8.6402    0.0000 C   0  0
    5.7601   -7.9755    0.0000 C   0  0
    6.9069   -8.6402    0.0000 O   0  0
    1.1598   -3.9878    0.0000 N   0  3
    1.1598   -2.6585    0.0000 O   0  5
    0.0000   -4.6524    0.0000 O   0  0
    4.6133   -1.9939    0.0000 C   0  0
    4.6133   -0.6646    0.0000 C   0  0
    5.7601    0.0000    0.0000 O   0  0
  1  2  2  0
  1  6  1  0
  2  5  1  0
  3  4  1  0
  3  5  2  0
  4  6  2  0
  4 15  1  0
  5  8  1  0
  6  7  1  0
  7 18  1  0
  8  9  1  0
  8 12  1  0
  9 10  1  0
 10 11  1  0
 12 13  1  0
 13 14  1  0
 15 16  1  0
 15 17  2  0
 18 19  1  0
 19 20  1  0
M  CHG  2  15   1  16  -1
M  END
> <Name>
HC Blue no. 2

> <Substance ID>
84

> <Synonyms>
2,2'-((4-((2-hydroxyethyl)amino)-3-nitrophenyl)imino)bisethanol; 3-nitro-N(sup 1),N(sup 1),N(sup 4)-tris(2-hydroxyethyl)-p-phenylenediamine; hc blue 2; N1,N4,N4-tris(2-hydroxyethyl)-2-nitro-p-phenylen
ediamine.

> <CAS>
33229-34-4

> <Reference>
NTP293

> <MolWeight>
285.3

> <Formula>
C12H19N3O5

> <SMILES>
C1(=C(C=CC(=C1)N(CCO)CCO)NCCO)[N+]([O-])=O

> <TD50_Rat>
NP

> <TD50_Mouse>
NP

> <Canc>
1

> <SAL>
3

> <Rat_Male_Canc>
1

> <Rat_Female_Canc>
1

> <Mouse_Male_Canc>
1

> <Mouse_Female_Canc>
1

> <Rat_Male_NTP>
NE

> <Rat_Female_NTP>
NE

> <Mouse_Male_NTP>
NE

> <Mouse_Female_NTP>
NE

> <Status>
Non-Carcinogen

> <New_Data>
true

> <iscarc>
0

$$$$
Pentachloronitrobenzene
  SciTegic06161615512D

 14 14  0  0  0  0            999 V2000
    3.4489   -2.6627    0.0000 C   0  0
    3.4489   -3.9941    0.0000 C   0  0
    1.1538   -3.9941    0.0000 C   0  0
    1.1538   -2.6627    0.0000 C   0  0
    2.3077   -4.6661    0.0000 C   0  0
    2.3077   -2.0034    0.0000 C   0  0
    0.0000   -2.0034    0.0000 Cl  0  0
    0.0000   -4.6661    0.0000 Cl  0  0
    2.3077   -5.9975    0.0000 Cl  0  0
    4.6027   -4.6661    0.0000 Cl  0  0
    4.6027   -2.0034    0.0000 Cl  0  0
    2.3077   -0.6720    0.0000 N   0  3
    3.4489    0.0000    0.0000 O   0  5
    1.1538    0.0000    0.0000 O   0  0
  1  2  2  0
  1  6  1  0
  1 11  1  0
  2  5  1  0
  2 10  1  0
  3  4  1  0
  3  5  2  0
  3  8  1  0
  4  6  2  0
  4  7  1  0
  5  9  1  0
  6 12  1  0
 12 13  1  0
 12 14  2  0
M  CHG  2  12   1  13  -1
M  END
> <Name>
Pentachloronitrobenzene

> <Substance ID>
129

> <Synonyms>
Avical; Avicol; Quintozine; saniclor 30; SA Terraclor; SA Terraclor 2E; Terrachlor; Terraclor; Terrafun; Tilcarex; Tri PCNB; tritisan; batrilex; Botrilex; brassicol; Earthcide; Eorthcicle; fartox; fom
ac 2; Fortox; fungiclor; gc 3944-3-4; Kobu; Kobutol; KP 2; Marison Forte; nitropentachlorobenzene; olpisan; PCNB; Pentagen; Pkhnb; quintobenzene; quintocene; quintozen.

> <CAS>
82-68-8

> <Reference>
NTP61 & NTP325

> <MolWeight>
295.34

> <Formula>
C6Cl5NO2

> <SMILES>
ClC1=C(C(=C(C(=C1Cl)Cl)Cl)Cl)[N+](=O)[O-]

> <TD50_Rat>
NP

> <TD50_Mouse>
NP

> <Canc>
1

> <SAL>
1

> <Rat_Male_Canc>
1

> <Rat_Female_Canc>
1

> <Mouse_Male_Canc>
1

> <Mouse_Female_Canc>
1

> <Rat_Male_NTP>
ND

> <Rat_Female_NTP>
ND

> <Mouse_Male_NTP>
NE

> <Mouse_Female_NTP>
NE

> <Status>
Non-Carcinogen

> <New_Data>
true

> <iscarc>
0

$$$$
Chlorendic Acid
  SciTegic06161615512D

 19 20  0  0  1  0            999 V2000
    3.9292    0.0000    0.0000 Cl  0  0
    3.2744   -1.1340    0.0000 C   0  0  2  0  0  0
    3.9292   -2.2681    0.0000 C   0  0  1  0  0  0
    3.2744   -2.6514    0.0000 C   0  0  2  0  0  0
    1.9646   -1.1340    0.0000 C   0  0
    5.2390   -2.2681    0.0000 C   0  0
    3.2744   -3.4021    0.0000 C   0  0  1  0  0  0
    3.9292   -3.7855    0.0000 Cl  0  0
    4.5841   -2.6514    0.0000 Cl  0  0
    1.9646   -3.4021    0.0000 C   0  0  2  0  0  0
    1.3097    0.0000    0.0000 Cl  0  0
    1.3097   -2.2681    0.0000 C   0  0
    5.8938   -3.4021    0.0000 O   0  0
    5.8938   -1.1340    0.0000 O   0  0
    3.9292   -4.5362    0.0000 C   0  0
    1.3097   -4.5362    0.0000 Cl  0  0
    0.0000   -2.2681    0.0000 Cl  0  0
    5.2390   -4.5362    0.0000 O   0  0
    3.2744   -5.6702    0.0000 O   0  0
  1  2  1  0
  2  3  1  0
  2  4  1  6
  2  5  1  0
  3  6  1  1
  3  7  1  6
  4  8  1  1
  4  9  1  0
  4 10  1  0
  5 11  1  1
  5 12  2  0
  6 13  2  0
  6 14  1  1
  7 10  1  6
  7 15  1  0
 10 12  1  6
 10 16  1  0
 12 17  1  0
 15 18  2  0
 15 19  1  6
M  END
> <Name>
Chlorendic Acid

> <Substance ID>
160

> <Synonyms>
1,4,5,6,7,7-bicyclo[2.2.1]-5-heptene-2,3-dicarboxylic acid; 1,4,5,6,7,7-bicyclo[2.2.1]hept-5-ene-2,3-dicarboxylic acid; 1,4,5,6,7,7-hexachloro-5-norbornene-2,3-dicarboxylic acid; 1,4,5,6,7,7-Hexachlor
obicyclo(2.2.1)-5-heptene-2,3-dicarboxylic acid; 1,4,5,6,7,7-hexachlorobicyclo[2.2.1]hept-5-ene-2,3-dicarboxylic acid; het acid; hexachloroendomethylenetetrahydrophthalic acid.

> <CAS>
115-28-6

> <Reference>
NTP304

> <MolWeight>
388.85

> <Formula>
C9H4Cl6O4

> <SMILES>
Cl[C@]2(Cl)[C@@]1(Cl)C(/Cl)=C(/Cl)[C@]2(Cl)[C@H](C(=O)O)[C@@H]1C(=O)O

> <TD50_Rat>
40.8

> <TD50_Mouse>
141

> <Canc>
3

> <SAL>
1

> <Rat_Male_Canc>
3

> <Rat_Female_Canc>
3

> <Mouse_Male_Canc>
3

> <Mouse_Female_Canc>
1

> <Rat_Male_NTP>
CE

> <Rat_Female_NTP>
CE

> <Mouse_Male_NTP>
CE

> <Mouse_Female_NTP>
NE

> <Status>
Carcinogen

> <New_Data>
true

> <iscarc>
1

$$$$
3-Chloro-2-Methylpropene
  SciTegic06161615512D

  5  4  0  0  0  0            999 V2000
    0.0000   -2.0010    0.0000 C   0  0
    1.1525   -1.3298    0.0000 C   0  0
    2.2923   -2.0010    0.0000 C   0  0
    3.4448   -1.3298    0.0000 Cl  0  0
    1.1525    0.0000    0.0000 C   0  0
  1  2  2  0
  2  3  1  0
  2  5  1  0
  3  4  1  0
M  END
> <Name>
3-Chloro-2-Methylpropene

> <Substance ID>
163

> <Synonyms>
1-chloro-2-methyl-2-propene; 2-methylallyl chloride; 3-Chloro-2-methyl-1-propene; 3-Chloro-2-methylprop-1-ene; 3-chloroisobutene; 3-chloroisobutylene; beta-methallyl chloride; beta-methylallyl chlorid
e; Isobutenyl chloride; Methallyl chloride; gamma-chloroisobutylene.

> <CAS>
563-47-3

> <Reference>
NTP300

> <MolWeight>
90.55

> <Formula>
C4H7Cl

> <SMILES>
CC(=C)CCl

> <TD50_Rat>
113

> <TD50_Mouse>
77.7

> <Canc>
3

> <SAL>
2

> <Rat_Male_Canc>
3

> <Rat_Female_Canc>
3

> <Mouse_Male_Canc>
3

> <Mouse_Female_Canc>
3

> <Rat_Male_NTP>
CE

> <Rat_Female_NTP>
CE

> <Mouse_Male_NTP>
CE

> <Mouse_Female_NTP>
CE

> <Status>
Carcinogen

> <New_Data>
true

> <iscarc>
1

$$$$
Decabromodiphenyl Oxide
  SciTegic06161615513D

 23 24  0  0  0  0            999 V2000
   31.0566  -11.9090    0.0125 C   0  0
   31.6218  -13.0995   -0.0177 C   0  0
   33.9033  -12.1813   -0.0160 C   0  0
   33.1966  -10.7954    0.0222 C   0  0
   33.0686  -13.2365   -0.0344 C   0  0
   31.8678  -10.7353    0.0329 C   0  0
   31.0300   -9.0312    0.0800 Br  0  0
   29.1653  -11.7514    0.0366 Br  0  0
   30.5316  -14.6551   -0.0371 Br  0  0
   33.7606  -14.9964   -0.0772 Br  0  0
   35.3454  -12.6501   -0.0308 O   0  0
   33.9486   -9.1084    0.0698 Br  0  0
   36.7891  -12.1854   -0.0257 C   0  0
   37.6201  -13.2435   -0.0139 C   0  0
   39.6366  -11.9223    0.0196 C   0  0
   38.8298  -10.7457   -0.0017 C   0  0
   39.0672  -13.1112    0.0102 C   0  0
   37.5009  -10.8012   -0.0285 C   0  0
   36.7559   -9.1108   -0.0773 Br  0  0
   39.6742   -9.0441   -0.0002 Br  0  0
   41.5281  -11.7708    0.0584 Br  0  0
   40.1519  -14.6706    0.0317 Br  0  0
   36.9220  -15.0014   -0.0168 Br  0  0
  1  2  2  0
  1  6  1  0
  1  8  1  0
  2  5  1  0
  2  9  1  0
  3  4  1  0
  3  5  2  0
  3 11  1  0
  4  6  2  0
  4 12  1  0
  5 10  1  0
  6  7  1  0
 11 13  1  0
 13 14  2  0
 13 18  1  0
 14 17  1  0
 14 23  1  0
 15 16  1  0
 15 17  2  0
 15 21  1  0
 16 18  2  0
 16 20  1  0
 17 22  1  0
 18 19  1  0
M  END
> <Name>
Decabromodiphenyl Oxide

> <Substance ID>
177

> <Synonyms>
1,1'-oxybis(2,3,4,5,6-pentabromobenzene); berkflam b 10E; bis(pentabromophenyl) ether; BR 55N; bromkal 82-ode; bromkal 83-10de; DE 83R; DBDPO; Decabromodiphenyl ether; Decabromodiphenyl ether; DPBPO;
FR 300; fr 300ba; FRP 53; Pentabromodiphenyl ether; pentabromophenyl ether; saytex 102; saytex 102E; tardex 100.

> <CAS>
1163-19-5

> <Reference>
NTP309

> <MolWeight>
959.17

> <Formula>
C12Br10O

> <SMILES>
BrC1=C(C(=C(C(=C1Br)Br)Br)Br)OC2=C(C(=C(C(=C2Br)Br)Br)Br)Br

> <TD50_Rat>
3340

> <TD50_Mouse>
NP

> <Canc>
3

> <SAL>
1

> <Rat_Male_Canc>
3

> <Rat_Female_Canc>
3

> <Mouse_Male_Canc>
2

> <Mouse_Female_Canc>
1

> <Rat_Male_NTP>
SE

> <Rat_Female_NTP>
SE

> <Mouse_Male_NTP>
EE

> <Mouse_Female_NTP>
NE

> <Status>
Carcinogen

> <New_Data>
true

> <iscarc>
1

$$$$
C.I. Disperse Blue 1
  SciTegic06161615513D

 20 22  0  0  0  0            999 V2000
    7.0387   -3.3598    0.0000 C   0  0
    7.0371   -1.9644    0.0007 C   0  0
    5.9396   -3.9955    0.0003 C   0  0
    5.9368   -1.3311    0.0000 C   0  0
    4.7284   -3.3001    0.0004 C   0  0
    4.7275   -2.0294    0.0002 C   0  0
    3.5179   -1.3327    0.0007 C   0  0
    3.5194   -3.9982    0.0008 C   0  0
    2.3102   -3.3010    0.0009 C   0  0
    2.3088   -2.0320    0.0004 C   0  0
    0.0000   -1.9726    0.0012 C   0  0
    0.0016   -3.3662    0.0009 C   0  0
    1.0978   -1.3356    0.0003 C   0  0
    1.1019   -4.0004    0.0008 C   0  0
    1.0947   -0.0044    0.0005 N   0  0
    1.1005   -5.3319    0.0001 N   0  0
    3.5163   -0.1535    0.0007 O   0  0
    3.5223   -5.1766    0.0009 O   0  0
    5.9374    0.0000    0.0012 N   0  0
    5.9429   -5.3262    0.0004 N   0  0
  1  2  2  0
  1  3  1  0
  2  4  1  0
  3  5  2  0
  3 20  1  0
  4  6  2  0
  4 19  1  0
  5  6  1  0
  5  8  1  0
  6  7  1  0
  7 10  1  0
  7 17  2  0
  8  9  1  0
  8 18  2  0
  9 10  2  0
  9 14  1  0
 10 13  1  0
 11 12  1  0
 11 13  2  0
 12 14  2  0
 13 15  1  0
 14 16  1  0
M  END
> <Name>
C.I. Disperse Blue 1

> <Substance ID>
189

> <Synonyms>
1,4,5,8-Tetraamino-9,10-anthracenedione; 1,4,5,8-tetraamino-9,10-anthraquinone; 1,4,5,8-Tetraaminoanthraquinone; 1,4,5,8-tetraminoanthraquinone; acetate blue g; acetoquinone blue l; acetoquinone blue
r; acetylon fast blue g; amacel blue gg; amacel pure blue b; artisil blue sap; diacellition fast blue r; Disperse Blue 1; disperse blue no. 1; brasilazet blue gr; celanthrene pure blue brs; celliton b
lue bb-cf; celliton blue extra; celliton blue g; celliton blue ga-cf; C.I. 64500; cibacet sapphire blue g; cilla blue extra; C.I. Solvent Blue 18; duranol brilliant blue cb; fenacet blue g; grasol blu
e 2gs; kayalon fast blue br; microsetile blue eb; miketon fast blue; miketon fast blue b; nacelan blue g; neosetile blue eb; nyloquinone blue 2j; oracet sapphire blue g; perliton blue b; serinyl blue
2g; serinyl blue 3g; serinyl blue 3gn; setacyl blue 2gs; setacyl blue 2gs ii; supracet brilliant blue 2gn; supracet deep blue r.

> <CAS>
2475-45-8

> <Reference>
NTP299

> <MolWeight>
268.27

> <Formula>
C14H12N4O2

> <SMILES>
O=C1C2=C(C(=CC=C2N)N)C(=O)C3=C(C=CC(=C13)N)N

> <TD50_Rat>
156

> <TD50_Mouse>
NP

> <Canc>
3

> <SAL>
3

> <Rat_Male_Canc>
3

> <Rat_Female_Canc>
3

> <Mouse_Male_Canc>
2

> <Mouse_Female_Canc>
1

> <Rat_Male_NTP>
CE

> <Rat_Female_NTP>
CE

> <Mouse_Male_NTP>
EE

> <Mouse_Female_NTP>
NE

> <Status>
Carcinogen

> <CanonicalTautomer>
Yes

> <NumberOfTautomers>
9

> <New_Data>
true

> <iscarc>
1

$$$$
Ephedrine sulfate
  SciTegic06161615512D

 29 28  0  0  1  0            999 V2000
    9.2739   -1.1545    0.0000 S   0  0
    8.1321   -1.8142    0.0000 O   0  0
   10.4284   -0.4821    0.0000 O   0  0
    9.9463   -2.2963    0.0000 O   0  0
    8.6142    0.0000    0.0000 O   0  0
    7.5486   -7.6754    0.0000 O   0  0
    9.8575   -6.3433    0.0000 N   0  0
    9.8575   -7.6754    0.0000 C   0  0  2  0  0  0
    8.6904   -8.3351    0.0000 C   0  0  1  0  0  0
    8.6904   -9.6672    0.0000 C   0  0
   11.0120   -8.3351    0.0000 C   0  0
    9.8575  -10.3396    0.0000 C   0  0
    7.5486  -10.3396    0.0000 C   0  0
   11.0120   -5.6836    0.0000 C   0  0
    9.8575  -11.6717    0.0000 C   0  0
    7.5486  -11.6717    0.0000 C   0  0
    8.6904  -12.3314    0.0000 C   0  0
    0.0000   -5.1888    0.0000 O   0  0
    2.2963   -3.8694    0.0000 N   0  0
    2.2963   -5.1888    0.0000 C   0  0  2  0  0  0
    1.1545   -5.8485    0.0000 C   0  0  1  0  0  0
    1.1545   -7.1806    0.0000 C   0  0
    3.4508   -5.8485    0.0000 C   0  0
    2.2963   -7.8530    0.0000 C   0  0
    0.0000   -7.8530    0.0000 C   0  0
    3.4508   -3.1970    0.0000 C   0  0
    2.2963   -9.1851    0.0000 C   0  0
    0.0000   -9.1851    0.0000 C   0  0
    1.1545   -9.8575    0.0000 C   0  0
  1  2  1  0
  1  3  1  0
  1  4  2  0
  1  5  2  0
  9  6  1  1
  8  7  1  1
  7 14  1  0
  8  9  1  0
  8 11  1  0
  9 10  1  0
 10 12  2  0
 10 13  1  0
 12 15  1  0
 13 16  2  0
 15 17  2  0
 16 17  1  0
 21 18  1  1
 20 19  1  1
 19 26  1  0
 20 21  1  0
 20 23  1  0
 21 22  1  0
 22 24  2  0
 22 25  1  0
 24 27  1  0
 25 28  2  0
 27 29  2  0
 28 29  1  0
M  END
> <Name>
Ephedrine sulfate

> <Substance ID>
191

> <Synonyms>
1-alpha-(1-(methylamino)ethyl)benzyl alcohol sulfate; 1-phenyl-2-methylamino-propanol-1-sulfate; 1-Phenyl-2-(methylamino)propanol sulfate; (-)-ephedrine sulfate; (-)-ephedrine sulfate (2:1) (salt); is
ofedrol; L-ephedrine sulfate; (R-(R*,S*))-alpha-(1-(methylamino)ethyl)benzenemethanol sulfate (2:1) (salt).

> <CAS>
134-72-5

> <Reference>
NTP307

> <MolWeight>
428.54

> <Formula>
C20H32N2O6S

> <SMILES>
O=S(=O)(O)O.O[C@@H](c1ccccc1)[C@H](N[C@@H3])[C@H3].O[C@@H](c1ccccc1)[C@H](N[C@@H3])[C@H3]

> <TD50_Rat>
NP

> <TD50_Mouse>
NP

> <Canc>
1

> <SAL>
1

> <Rat_Male_Canc>
1

> <Rat_Female_Canc>
1

> <Mouse_Male_Canc>
1

> <Mouse_Female_Canc>
1

> <Rat_Male_NTP>
NE

> <Rat_Female_NTP>
NE

> <Mouse_Male_NTP>
NE

> <Mouse_Female_NTP>
NE

> <Status>
Non-Carcinogen

> <New_Data>
true

> <iscarc>
0

$$$$
Isophorone
  SciTegic06161615512D

 10 10  0  0  0  0            999 V2000
    3.1581   -2.4859    0.0000 C   0  0
    2.4859   -3.6274    0.0000 C   0  0
    1.1542   -3.6274    0.0000 C   0  0
    0.4946   -2.4859    0.0000 C   0  0
    1.1542   -1.3317    0.0000 C   0  0
    2.4859   -1.3317    0.0000 C   0  0
    0.4946   -4.7816    0.0000 O   0  0
    0.0000   -0.6595    0.0000 C   0  0
    1.1542    0.0000    0.0000 C   0  0
    4.4899   -2.4859    0.0000 C   0  0
  1  2  2  0
  1  6  1  0
  1 10  1  0
  2  3  1  0
  3  4  1  0
  3  7  2  0
  4  5  1  0
  5  6  1  0
  5  8  1  0
  5  9  1  0
M  END
> <Name>
Isophorone

> <Substance ID>
198

> <Synonyms>
1,1,3-trimethyl-3-cyclohexene-5-one; 1,5,5-Trimethyl-1-cyclohexen-3-one; 3,5,5-Trimethyl-2-cyclohexen-1-one; 3,5,5-Trimethyl-2-Cyclohexenone; 3,5,5-Trimethylcyclohex-2-enone; 3,5,5-Trimethylcyclohexen
one; Alpha-isophorone; Isoacetophorone; isoforon.

> <CAS>
78-59-1

> <Reference>
NTP291

> <MolWeight>
138.21

> <Formula>
C9H14O

> <SMILES>
CC1(CC(=CC(=O)C1)C)C

> <TD50_Rat>
1210

> <TD50_Mouse>
NP

> <Canc>
3

> <SAL>
1

> <Rat_Male_Canc>
3

> <Rat_Female_Canc>
1

> <Mouse_Male_Canc>
2

> <Mouse_Female_Canc>
1

> <Rat_Male_NTP>
SE

> <Rat_Female_NTP>
NE

> <Mouse_Male_NTP>
EE

> <Mouse_Female_NTP>
NE

> <Status>
Carcinogen

> <New_Data>
true

> <iscarc>
1

$$$$
Acrylonitrile
  SciTegic06161615512D

  4  3  0  0  0  0            999 V2000
    0.0000   -0.6588    0.0000 C   0  0
    2.3059   -0.6588    0.0000 C   0  0
    1.1529    0.0000    0.0000 C   0  0
    3.4588   -1.3303    0.0000 N   0  0
  1  3  2  0
  2  3  1  0
  2  4  3  0
M  END
> <Name>
Acrylonitrile

> <Substance ID>
239

> <Synonyms>
2-Propenenitrile; ACN; AN; Cyanoethylene; Fumigrain; miller's fumigrain; propenenitrile; Propenitrile; propenonitrile; TL 314; VCN; vinyl cyanide.

> <CAS>
107-13-1

> <Reference>
CPDB & NTP506

> <MolWeight>
53.06

> <Formula>
C3H3N

> <SMILES>
C=CC#N

> <TD50_Rat>
16.9

> <TD50_Mouse>
ND

> <Canc>
3

> <SAL>
3

> <Rat_Male_Canc>
3

> <Rat_Female_Canc>
3

> <Mouse_Male_Canc>
3

> <Mouse_Female_Canc>
3

> <Rat_Male_NTP>
ND

> <Rat_Female_NTP>
ND

> <Mouse_Male_NTP>
CE

> <Mouse_Female_NTP>
CE

> <Status>
Carcinogen

> <New_Data>
true

> <iscarc>
1

$$$$
2-Amino-5-nitrophenol
  SciTegic06161615512D

 11 11  0  0  0  0            999 V2000
    3.4551   -2.6578    0.0000 C   0  0
    2.3034   -1.9870    0.0000 C   0  0
    3.4551    0.0000    0.0000 C   0  0
    4.6068   -0.6581    0.0000 C   0  0
    2.3034   -0.6581    0.0000 C   0  0
    4.6068   -1.9870    0.0000 C   0  0
    5.7585   -2.6578    0.0000 O   0  0
    5.7585    0.0000    0.0000 N   0  0
    1.1517   -2.6578    0.0000 N   0  3
    0.0000   -1.9870    0.0000 O   0  5
    1.1517   -3.9866    0.0000 O   0  0
  1  2  2  0
  1  6  1  0
  2  5  1  0
  2  9  1  0
  3  4  1  0
  3  5  2  0
  4  6  2  0
  4  8  1  0
  6  7  1  0
  9 10  1  0
  9 11  2  0
M  CHG  2   9   1  10  -1
M  END
> <Name>
2-Amino-5-nitrophenol

> <Substance ID>
254

> <Synonyms>
2-hydroxy-4-nitroaniline; 5-nitro-2-aminophenol; C.I. 76535; rodol yba; ursol yellow brown a.

> <CAS>
121-88-0

> <Reference>
NTP334

> <MolWeight>
154.13

> <Formula>
C6H6N2O3

> <SMILES>
O=[N+](C1=CC(=C(C=C1)N)O)[O-]

> <TD50_Rat>
111

> <TD50_Mouse>
NP

> <Canc>
3

> <SAL>
3

> <Rat_Male_Canc>
3

> <Rat_Female_Canc>
1

> <Mouse_Male_Canc>
1

> <Mouse_Female_Canc>
1

> <Rat_Male_NTP>
SE

> <Rat_Female_NTP>
NE

> <Mouse_Male_NTP>
NE

> <Mouse_Female_NTP>
NE

> <Status>
Non-Carcinogen

> <New_Data>
true

> <iscarc>
0

$$$$
Ampicillin trihydrate
  SciTegic06161615512D

 24 26  0  0  1  0            999 V2000
    2.5621   -2.9511    0.0000 C   0  0
    1.6231   -3.9035    0.0000 C   0  0
    0.0000   -2.2670    0.0000 C   0  0
    0.9390   -1.3280    0.0000 C   0  0
    0.3353   -3.5547    0.0000 C   0  0
    2.2267   -1.6767    0.0000 C   0  0
    5.4863   -4.9363    0.0000 N   0  0
    4.1986   -4.5876    0.0000 C   0  0
    3.8498   -3.2998    0.0000 C   0  0  2  0  0  0
    3.2596   -5.5266    0.0000 O   0  0
    4.7888   -2.3609    0.0000 N   0  0
    6.4253   -3.9839    0.0000 C   0  0
    6.4253   -2.6560    0.0000 C   0  0
    5.4863   -1.7170    0.0000 O   0  0
    7.7533   -3.9839    0.0000 C   0  0
    7.7533   -2.6560    0.0000 N   0  0
    9.0142   -2.2535    0.0000 C   0  0  1  0  0  0
    9.7922   -3.3267    0.0000 C   0  0
    9.0142   -4.3998    0.0000 S   0  0
   10.9458   -2.6560    0.0000 C   0  0
   10.9458   -3.9839    0.0000 C   0  0
    9.4300   -0.9792    0.0000 C   0  0
   10.7312   -0.7109    0.0000 O   0  0
    8.5313    0.0000    0.0000 O   0  0
  1  2  2  0
  1  6  1  0
  1  9  1  0
  2  5  1  0
  3  4  1  0
  3  5  2  0
  4  6  2  0
  7  8  1  0
  7 12  1  0
  8  9  1  0
  8 10  2  0
  9 11  1  1
 12 13  1  0
 12 15  1  0
 13 16  1  0
 13 14  2  0
 15 16  1  0
 15 19  1  0
 16 17  1  0
 17 18  1  0
 17 22  1  6
 18 19  1  0
 18 20  1  0
 18 21  1  0
 22 23  1  0
 22 24  2  0
M  END
> <Name>
Ampicillin trihydrate

> <Substance ID>
255

> <Synonyms>
(6R)-6-(alpha-D-phenylglycylamino)penicillanic acid trihydrate; alpha-aminobenzylpenicillin trihydrate; acillin; Amcap; Amcill; aminobenzylpenicillin trihydrate; amperil; ampichel; AMPICILLIN TRIHYDRA
TE, NON-STERILE USP; ampikel; ampinova; amplin; divercillin; Cymbi; D-(-)-6-(2-amino-2-phenylacetamido)-3,3-dimethyl-7-oxo-4-thia-1-azabicyclo[3.2.0]heptane-2-carboxylic acid trihydrate; lifeampil; mo
repen; PEN A; pensyn; princillin; Principen; ro-ampen; trafarbiot; ukopen; vidopen.

> <CAS>
7177-48-2

> <Reference>
NTP318

> <MolWeight>
403.4

> <Formula>
C16H19N3O4S

> <SMILES>
O=C(O)[C@@H]2N3C(=O)[C@@H](NC(=O)[C@@H](c1ccccc1)N)[C@H]3SC2(C)C

> <TD50_Rat>
NP

> <TD50_Mouse>
NP

> <Canc>
2

> <SAL>
1

> <Rat_Male_Canc>
2

> <Rat_Female_Canc>
1

> <Mouse_Male_Canc>
1

> <Mouse_Female_Canc>
1

> <Rat_Male_NTP>
EE

> <Rat_Female_NTP>
NE

> <Mouse_Male_NTP>
NE

> <Mouse_Female_NTP>
NE

> <Status>
Non-Carcinogen

> <New_Data>
true

> <iscarc>
0

$$$$
C.I. Basic Red 9 Hydrochloride
  SciTegic06161615512D

 22 24  0  0  0  0            999 V2000
    3.9912   -4.5994    0.0000 C   0  0
    4.6628   -3.4464    0.0000 C   0  0
    5.9932   -3.4464    0.0000 C   0  0
    6.6521   -4.5994    0.0000 C   0  0
    5.9932   -5.7525    0.0000 C   0  0
    4.6628   -5.7525    0.0000 C   0  0
    2.6608   -4.5994    0.0000 C   0  0
    2.0020   -3.4464    0.0000 C   0  0
    2.0020   -5.7525    0.0000 C   0  0
    0.6715   -3.4464    0.0000 C   0  0
    0.6715   -1.1530    0.0000 C   0  0
    2.0020   -1.1530    0.0000 C   0  0
    0.0000   -2.3060    0.0000 C   0  0
    2.6608   -2.3060    0.0000 C   0  0
    2.6608   -6.9055    0.0000 C   0  0
    0.6715   -8.0585    0.0000 C   0  0
    0.0000   -6.9055    0.0000 C   0  0
    2.0020   -8.0585    0.0000 C   0  0
    0.6715   -5.7525    0.0000 C   0  0
    0.0000    0.0000    0.0000 N   0  0
    0.0000   -9.2115    0.0000 N   0  0
    7.9825   -4.5994    0.0000 N   0  3
  1  2  1  0
  1  6  1  0
  1  7  2  0
  2  3  2  0
  3  4  1  0
  4  5  1  0
  4 22  2  0
  5  6  2  0
  7  8  1  0
  7  9  1  0
  8 10  2  0
  8 14  1  0
  9 15  2  0
  9 19  1  0
 10 13  1  0
 11 12  1  0
 11 13  2  0
 11 20  1  0
 12 14  2  0
 15 18  1  0
 16 17  1  0
 16 18  2  0
 16 21  1  0
 17 19  2  0
M  CHG  1  22   1
M  END
> <Name>
C.I. Basic Red 9 Hydrochloride

> <Substance ID>
258

> <Synonyms>
4,4'-((4-imino-2,5-cyclohexadien-1-ylidene)methylene)dianiline monohydrochloride; 4-((4-aminophenyl)(4-imino-2,5-cyclohexadien-1-ylidene)methyl)benzenamine monohydrochloride; p-fuchsin; Paramagenta; P
ararosanilin; pararosaniline chloride; Pararosaniline chloride, high purity biological stain; Pararosaniline Hydrochloride; basic parafuchsine; Basic Fuchsin; Basic Red 9; Basic Red 9, monohydrochlori
de; calcozine magenta n; C.I. 42500; C.I. Basic Red 9; C.I. Basic Red 9 monohydrochloride; Fuchsine, Acid; Magenta.

> <CAS>
569-61-9

> <Reference>
NTP285

> <MolWeight>
323.83

> <Formula>
C19H18N3

> <SMILES>
[Cl-].[NH2+]=C\1/C=C\C(/C=C/1)=C(/c2ccc(N)cc2)c3ccc(N)cc3

> <TD50_Rat>
39.4

> <TD50_Mouse>
51.5

> <Canc>
3

> <SAL>
3

> <Rat_Male_Canc>
3

> <Rat_Female_Canc>
3

> <Mouse_Male_Canc>
3

> <Mouse_Female_Canc>
3

> <Rat_Male_NTP>
CE

> <Rat_Female_NTP>
CE

> <Mouse_Male_NTP>
CE

> <Mouse_Female_NTP>
CE

> <Status>
Carcinogen

> <New_Data>
true

> <iscarc>
1

$$$$
4-Hexylresorcinol
  SciTegic06161615512D

 14 14  0  0  0  0            999 V2000
    4.6092   -1.9880    0.0000 C   0  0
    4.6092   -3.3176    0.0000 C   0  0
    2.3046   -3.3176    0.0000 C   0  0
    2.3046   -1.9880    0.0000 C   0  0
    3.4569   -3.9887    0.0000 C   0  0
    3.4569   -1.3296    0.0000 C   0  0
    3.4569    0.0000    0.0000 O   0  0
    1.1523   -3.9887    0.0000 O   0  0
    3.4569   -5.3183    0.0000 C   0  0
    2.3046   -5.9767    0.0000 C   0  0
    2.3046   -7.3063    0.0000 C   0  0
    1.1523   -7.9774    0.0000 C   0  0
    1.1523   -9.3070    0.0000 C   0  0
    0.0000   -9.9655    0.0000 C   0  0
  1  2  2  0
  1  6  1  0
  2  5  1  0
  3  4  1  0
  3  5  2  0
  3  8  1  0
  4  6  2  0
  5  9  1  0
  6  7  1  0
  9 10  1  0
 10 11  1  0
 11 12  1  0
 12 13  1  0
 13 14  1  0
M  END
> <Name>
4-Hexylresorcinol

> <Substance ID>
265

> <Synonyms>
4-Hexyl-1,3-benzenediol; 4-Hexyl-1,3-dihydroxybenzene; 4-hexylresorcine; 4-n-hexylresorcinol; Ascaryl; Benzenediol, 4-hexyl-; Crystoids; crystoids anthelmintic; Gelovermin; Caprokol; Hexylresorcinol;
S.T. 37; Sucrets; Worm-agen.

> <CAS>
136-77-6

> <Reference>
NTP330

> <MolWeight>
194.27

> <Formula>
C12H18O2

> <SMILES>
OC1=C(C=CC(=C1)O)CCCCCC

> <TD50_Rat>
NP

> <TD50_Mouse>
NP

> <Canc>
2

> <SAL>
1

> <Rat_Male_Canc>
1

> <Rat_Female_Canc>
1

> <Mouse_Male_Canc>
2

> <Mouse_Female_Canc>
1

> <Rat_Male_NTP>
NE

> <Rat_Female_NTP>
NE

> <Mouse_Male_NTP>
EE

> <Mouse_Female_NTP>
NE

> <Status>
Carcinogen

> <New_Data>
true

> <iscarc>
1

$$$$
Hydrochlorothiazide
  SciTegic06161615512D

 17 18  0  0  0  0            999 V2000
    2.6560   -2.3128    0.0000 C   0  0
    3.3275   -1.1639    0.0000 C   0  0
    4.6555   -1.1639    0.0000 C   0  0
    3.3275   -3.4618    0.0000 C   0  0
    4.6555   -3.4618    0.0000 C   0  0
    5.3270   -2.3128    0.0000 C   0  0
    6.6550   -2.3128    0.0000 N   0  0
    7.3115   -3.4618    0.0000 C   0  0
    6.6550   -4.6107    0.0000 N   0  0
    5.3270   -4.6107    0.0000 S   0  0
    1.3280   -2.3128    0.0000 S   0  0
    2.6560    0.0000    0.0000 Cl  0  0
    4.1631   -5.2822    0.0000 O   0  0
    5.3270   -5.9388    0.0000 O   0  0
    1.3280   -3.6408    0.0000 N   0  0
    1.3280   -0.9848    0.0000 O   0  0
    0.0000   -2.3128    0.0000 O   0  0
  1  2  2  0
  1  4  1  0
  1 11  1  0
  2  3  1  0
  2 12  1  0
  3  6  2  0
  4  5  2  0
  5  6  1  0
  5 10  1  0
  6  7  1  0
  7  8  1  0
  8  9  1  0
  9 10  1  0
 10 13  2  0
 10 14  2  0
 11 15  1  0
 11 16  2  0
 11 17  2  0
M  END
> <Name>
Hydrochlorothiazide

> <Substance ID>
266

> <Synonyms>
3,4-dihydro-6-chloro-7-sulfamoyl-1,2,4-benzothiadiazine-1,1-dioxide; 3,4-dihydrochlorothiazide; oretic; panurin; panurin dichloride; spironolactone/hydrochlorothiazide; thiaretic; urodiazin; vetidrex;
 6-chloro-3,4-dihydro-2H-1,2,4-benzothiadiazine-7-sulfonamide-1,1-dioxide; 6-chloro-3,4-dihydro-7-sulfamoyl-2H-1,2,4-benzothiadiazine-1,1-dioxide; Aldactazide; aquarills; aquarius; dichlorosal; diclot
ride; chlorosulthiadil; cidrex; esidrex; Esidrix; HCTZ; HCZ; hydril; hydrodiuril; Hydro-chlor; Hydro-D; hydrosaluric; hypothiazide; ivaugan; nefrix; neo-codema; neoflumen.

> <CAS>
58-93-5

> <Reference>
NTP357

> <MolWeight>
297.73

> <Formula>
C7H8ClN3O4S2

> <SMILES>
O=S1(=O)C2=C(C=C(C(=C2)S(=O)(=O)N)Cl)NCN1

> <TD50_Rat>
NP

> <TD50_Mouse>
NP

> <Canc>
2

> <SAL>
1

> <Rat_Male_Canc>
1

> <Rat_Female_Canc>
1

> <Mouse_Male_Canc>
2

> <Mouse_Female_Canc>
1

> <Rat_Male_NTP>
NE

> <Rat_Female_NTP>
NE

> <Mouse_Male_NTP>
EE

> <Mouse_Female_NTP>
NE

> <Status>
Carcinogen

> <New_Data>
true

> <iscarc>
1

$$$$
Malonaldehyde, Sodium Salt
  SciTegic06161615512D

  5  4  0  0  0  0            999 V2000
    0.6336   -0.2198    0.0000 C   0  0
    1.8103    0.0000    0.0000 O   0  0
    0.0000   -1.5387    0.0000 C   0  0
    0.5431   -2.7284    0.0000 C   0  0
    1.8620   -3.0258    0.0000 O   0  5
  1  2  2  0
  1  3  1  0
  3  4  2  0
  4  5  1  0
M  CHG  1   5  -1
M  END
> <Name>
Malonaldehyde, Sodium Salt

> <Substance ID>
268

> <Synonyms>
3-Hydroxy-2-propenal, sodium salt; sodium malonaldehyde, ion (1-); sodium malondialdehyde; propanedial, ion (1-), sodium.

> <CAS>
24382-04-5

> <Reference>
NTP331

> <MolWeight>
94.05

> <Formula>
C3H3O2

> <SMILES>
[Na+].[O-]\C=C\C=O

> <TD50_Rat>
122

> <TD50_Mouse>
14.1

> <Canc>
3

> <SAL>
1

> <Rat_Male_Canc>
3

> <Rat_Female_Canc>
3

> <Mouse_Male_Canc>
1

> <Mouse_Female_Canc>
1

> <Rat_Male_NTP>
CE

> <Rat_Female_NTP>
CE

> <Mouse_Male_NTP>
NE

> <Mouse_Female_NTP>
NE

> <Status>
Non-Carcinogen

> <New_Data>
true

> <iscarc>
0

$$$$
Methyl Dopa Sesquihydrate
  SciTegic06161615513D

 30 30  0  0  1  0            999 V2000
    7.2452   -5.9652    1.7355 C   0  0
    6.1451   -6.8747    1.8832 C   0  0  1  0  0  0
    8.1785   -6.2233    2.5470 O   0  0
    7.2997   -5.0878    1.0192 O   0  0
    4.9242   -6.0982    1.8215 C   0  0
    3.6483   -6.7141    1.9513 C   0  0
    3.4424   -7.9629    2.2976 C   0  0
    2.2263   -8.4338    2.4151 C   0  0
    1.1744   -7.6822    2.1989 C   0  0
    1.3570   -6.4351    1.8284 C   0  0
    2.5824   -5.9785    1.7273 C   0  0
    0.3576   -5.6635    1.6400 O   0  0
    0.0000   -8.1576    2.3361 O   0  0
    6.2612   -7.8177    0.7960 C   0  0
    6.2385   -7.5211    3.1037 N   0  0
    6.8383   -1.1294    0.8973 C   0  0
    5.7110   -1.9440    1.2280 C   0  0  1  0  0  0
    7.8257   -1.8353    0.5461 O   0  0
    6.9075    0.0000    0.9636 O   0  0
    4.7661   -1.1847    2.0206 C   0  0
    3.6831   -1.9848    2.4713 C   0  0
    3.7643   -2.6680    3.5872 C   0  0
    2.7707   -3.4247    3.9772 C   0  0
    1.6618   -3.5105    3.2816 C   0  0
    1.5423   -2.7781    2.1954 C   0  0
    2.5544   -2.0397    1.8047 C   0  0
    0.4691   -2.8113    1.5057 O   0  0
    0.6947   -4.2389    3.6879 O   0  0
    5.1147   -2.4148    0.0000 C   0  0
    6.1256   -3.0353    1.9688 N   0  0
  1  2  1  0
  1  3  1  1
  1  4  2  0
  2  5  1  0
  2 14  1  6
  2 15  1  1
  5  6  1  0
  6  7  2  0
  6 11  1  0
  7  8  1  0
  8  9  2  0
  9 10  1  0
  9 13  1  0
 10 11  2  0
 10 12  1  0
 16 17  1  0
 16 18  1  0
 16 19  2  0
 17 20  1  1
 17 29  1  6
 17 30  1  1
 20 21  1  0
 21 22  2  0
 21 26  1  6
 22 23  1  0
 23 24  2  0
 24 25  1  6
 24 28  1  0
 25 26  2  0
 25 27  1  6
M  END
> <Name>
Methyl Dopa Sesquihydrate

> <Substance ID>
271

> <Synonyms>
alpha-Methyldopa sesquihydrate.

> <CAS>
41372-08-1

> <Reference>
NTP348

> <MolWeight>
211.22

> <Formula>
C20H26N2O8

> <SMILES>
O=C(O)[C@]([N@H2])([C@@H3])[C@H2]c1ccc(O)c(O)c1.O=C(O)[C@@]([N@H2])([C@@H2]c1cc(O)c(O)cc1)[C@@H3]

> <TD50_Rat>
NP

> <TD50_Mouse>
NP

> <Canc>
2

> <SAL>
1

> <Rat_Male_Canc>
1

> <Rat_Female_Canc>
1

> <Mouse_Male_Canc>
2

> <Mouse_Female_Canc>
1

> <Rat_Male_NTP>
NE

> <Rat_Female_NTP>
NE

> <Mouse_Male_NTP>
EE

> <Mouse_Female_NTP>
NE

> <Status>
Carcinogen

> <New_Data>
true

> <iscarc>
1

$$$$
Nitrofurantoin
  SciTegic06161615512D

 17 18  0  0  0  0            999 V2000
    7.9277   -1.1904    0.0000 N   0  0
    9.0042   -0.4179    0.0000 C   0  0
   10.0806   -1.1904    0.0000 C   0  0
    9.6627   -2.4568    0.0000 N   0  0
    8.3330   -2.4568    0.0000 C   0  0
    3.3307   -2.0516    0.0000 O   0  0
    2.2542   -1.2664    0.0000 C   0  0
    2.6721    0.0000    0.0000 C   0  0
    4.0018    0.0000    0.0000 C   0  0
    4.4071   -1.2664    0.0000 C   0  0
    5.6735   -1.6717    0.0000 C   0  0
    6.6613   -0.7852    0.0000 N   0  0
    7.5478   -3.5333    0.0000 O   0  0
   11.3470   -0.7852    0.0000 O   0  0
    0.9878   -1.6717    0.0000 N   0  3
    0.0000   -0.7852    0.0000 O   0  5
    0.7092   -2.9761    0.0000 O   0  0
  1  2  1  0
  1  5  1  0
  1 12  1  0
  2  3  1  0
  3  4  1  0
  3 14  2  0
  4  5  1  0
  5 13  2  0
  6  7  1  0
  6 10  1  0
  7  8  2  0
  7 15  1  0
  8  9  1  0
  9 10  2  0
 10 11  1  0
 11 12  2  0
 15 16  1  0
 15 17  2  0
M  CHG  2  15   1  16  -1
M  END
> <Name>
Nitrofurantoin

> <Substance ID>
273

> <Synonyms>
1-(((5-nitro-2-furanyl)methylene)amino)-2,4-imidazolidinedione; 1-(5-nitro-2-furfurylideneamino)hydantoin; 1-[(5-Nitrofurfurylidene)amino]hydantoin; benkfuran; berkfurin; chemiofuran; cyantin; cystit;
 dantafur; fua-med; furachel; furadantin; furadantoin; furadoine; furadonin; furalan; furantoin; Furatoin; furobactina; furophen; ituran; Macrobid; Macrodantin; N-(5-nitro-2-furfurylidene)-1-aminohyda
ntoin; N-(5-nitrofurfurylidene)-1-aminohydantoin; nifurantin; N-toin; orafuran; parfuran; trantoin; urantoin; urizept; urodil; urodin; urolong; uro-tablineu; welfurin; zoofurin.

> <CAS>
67-20-9

> <Reference>
NTP341

> <MolWeight>
238.16

> <Formula>
C8H6N4O5

> <SMILES>
O=C1N(CC(=O)N1)/N=C/C2=CC=C(O2)[N+](=O)[O-]

> <TD50_Rat>
163

> <TD50_Mouse>
1400

> <Canc>
3

> <SAL>
3

> <Rat_Male_Canc>
3

> <Rat_Female_Canc>
1

> <Mouse_Male_Canc>
1

> <Mouse_Female_Canc>
3

> <Rat_Male_NTP>
SE

> <Rat_Female_NTP>
NE

> <Mouse_Male_NTP>
NE

> <Mouse_Female_NTP>
CE

> <Status>
Non-Carcinogen

> <CanonicalTautomer>
Yes

> <NumberOfTautomers>
3

> <New_Data>
true

> <iscarc>
0

$$$$
Nitrofurazone
  SciTegic06161615512D

 14 14  0  0  0  0            999 V2000
    3.0046   -0.3550    0.0000 O   0  0
    4.2216   -0.9001    0.0000 C   0  0
    4.0822   -2.2312    0.0000 C   0  0
    2.7764   -2.4975    0.0000 C   0  0
    2.1171   -1.3438    0.0000 C   0  0
    5.3753   -0.2409    0.0000 C   0  0
    6.5289   -0.9001    0.0000 N   0  0
    7.6826   -0.2409    0.0000 N   0  0
    8.8362   -0.9001    0.0000 C   0  0
    8.8362   -2.2312    0.0000 N   0  0
    9.9772   -0.2409    0.0000 O   0  0
    0.7860   -1.2044    0.0000 N   0  3
    0.2409    0.0000    0.0000 O   0  5
    0.0000   -2.2820    0.0000 O   0  0
  1  2  1  0
  1  5  1  0
  2  3  2  0
  2  6  1  0
  3  4  1  0
  4  5  2  0
  5 12  1  0
  6  7  2  0
  7  8  1  0
  8  9  1  0
  9 10  1  0
  9 11  2  0
 12 13  1  0
 12 14  2  0
M  CHG  2  12   1  13  -1
M  END
> <Name>
Nitrofurazone

> <Substance ID>
274

> <Synonyms>
2-[(5-Nitro-2-furanyl)methylene]-hydrazinecarboxamide; 2-furaldehyde, 5-nitro-, semicarbazole; 5-Nitro-2-furaldehyde Semicarbazone; 5-nitro-2-furancarboxaldehyde semicarbazone; 5-nitro-2-furfuraldehyd
e semicarbazone; 5-nitro-2-furfural semicarbazone; (5-nitro-2-furfurylideneamino)urea; 5-Nitro-2-furfurylidene semicarbazone; 5-nitrofuraldehyde semicarbazide; 5-nitrofuraldehyde semicarbazone; 5-nitr
ofuran-2-aldehyde semicarbazone; 5-nitrofurfural semicarbazone; 6-nitrofuraldehyde semicarbazide; Aldomycin; alfucin; Amifur; babrocid; becafurazone; biofuracina; biofurea; Chemofuran; chixin; cocafur
in; Coxistat; dermofural; dyanazone; eldezol; eldezol f-6; fedacin; flavazone; fracine; furacilin; furacillin; Furacin; Furacinetten; furacin-hc; Furacoccid; furacort; furacycline; furaldon; furalone;
 furametral; furan-ofteno; Furaplast; furaseptyl; furaskin; furaziline; furazin; furazina; Furazol W; furazone; Furesol; furfurin; furosem; fuvacillin; hemofuran; ibiofural; Mammex; mastofuran; monofu
racin; Nefco; NF; NF-7; NFS; NFZ; nifucin; nifurid; Nifuzon; Nitrofural; nitrofurazan; Nitrorural; Nitrozone; otofuran; sanfuran; spray-dermis; spray-foral; U-6421; Vabrocid; vadrocid; veterinary nitr
ofurazone; yatrocin.

> <CAS>
59-87-0

> <Reference>
NTP337

> <MolWeight>
198.14

> <Formula>
C6H6N4O4

> <SMILES>
O=[N+](C1=CC=C(O1)/C=N/NC(=O)N)[O-]

> <TD50_Rat>
6.98

> <TD50_Mouse>
30.8

> <Canc>
3

> <SAL>
3

> <Rat_Male_Canc>
2

> <Rat_Female_Canc>
3

> <Mouse_Male_Canc>
1

> <Mouse_Female_Canc>
3

> <Rat_Male_NTP>
EE

> <Rat_Female_NTP>
CE

> <Mouse_Male_NTP>
NE

> <Mouse_Female_NTP>
CE

> <Status>
Non-Carcinogen

> <CanonicalTautomer>
Yes

> <NumberOfTautomers>
2

> <New_Data>
true

> <iscarc>
0

$$$$
Oxytetracycline Hydrochloride
  SciTegic06161615512D

 33 36  0  0  1  0            999 V2000
    8.0705   -1.3258    0.0000 C   0  0
    9.2161   -1.9951    0.0000 C   0  0
    9.2161   -3.3209    0.0000 C   0  0
    8.0705   -3.9902    0.0000 C   0  0  1  0  0  0
    6.9121   -1.9951    0.0000 C   0  0  1  0  0  0
    6.9121   -3.3209    0.0000 C   0  0
    5.7536   -3.9902    0.0000 C   0  0  1  0  0  0
    5.7536   -1.3258    0.0000 C   0  0
    4.6081   -1.9951    0.0000 C   0  0
    4.6081   -3.3209    0.0000 C   0  0
    3.4496   -3.9902    0.0000 C   0  0  1  0  0  0
    3.4496   -1.3258    0.0000 C   0  0
    2.3040   -1.9951    0.0000 C   0  0
    2.3040   -3.3209    0.0000 C   0  0
    0.0000   -3.3209    0.0000 C   0  0
    0.0000   -1.9951    0.0000 C   0  0
    1.1456   -3.9902    0.0000 C   0  0
    1.1456   -1.3258    0.0000 C   0  0
    1.1456    0.0000    0.0000 O   0  0
    3.4496    0.0000    0.0000 O   0  0
    5.7536    0.0000    0.0000 O   0  0
    6.9121   -0.6565    0.0000 O   0  0
    8.0705    0.0000    0.0000 O   0  0
   10.3746   -1.3258    0.0000 C   0  0
   10.3746    0.0000    0.0000 N   0  0
   11.5201   -1.9951    0.0000 O   0  0
    8.0705   -5.3160    0.0000 N   0  0
    6.9121   -5.9853    0.0000 C   0  0
    9.2161   -5.9853    0.0000 C   0  0
    5.7536   -5.3160    0.0000 O   0  0
    4.1189   -5.1358    0.0000 C   0  0
    2.7932   -5.1358    0.0000 O   0  0
   10.3746   -3.9902    0.0000 O   0  0
  1  5  1  0
  1  2  2  0
  1 23  1  0
  2  3  1  0
  2 24  1  0
  3  4  1  0
  3 33  2  0
  4  6  1  0
  4 27  1  6
  5  6  1  0
  5  8  1  0
  5 22  1  6
  6  7  1  0
  7 10  1  0
  7 30  1  6
  8  9  2  0
  8 21  1  0
  9 10  1  0
  9 12  1  0
 10 11  1  0
 11 14  1  0
 11 31  1  6
 11 32  1  0
 12 13  1  0
 12 20  2  0
 13 14  2  0
 13 18  1  0
 14 17  1  0
 15 16  1  0
 15 17  2  0
 16 18  2  0
 18 19  1  0
 24 25  1  0
 24 26  2  0
 27 28  1  0
 27 29  1  0
M  END
> <Name>
Oxytetracycline Hydrochloride

> <Substance ID>
275

> <Synonyms>
2-Naphthacenecarboxamide, 4-(dimethylamino)-1,4,4a,5,5a,6,11,12a-octahydro-3,5,6,10,12,12a-hexahydroxy-6-methyl-1,11-dioxo-, monohydrochloride, [4S-(4alpha,4aalpha,5alpha,5aalpha,6beta,12aalpha)]-; 4-
(dimethylamino)-1,4,4a,5,5a,6,11,12a-octahydro-3,5,6,10,12,12a-hexahydroxy-6-methyl-1,11-dioxo-2-naphthacenecarboxamide monohydrochloride; 5-Hydroxytetracycline hydrochloride; Aquacycline; bisolvomyci
n; hydrocyclin; Hydroxytetracycline monohydrochloride; liquamycin injectable; Medamycin; Medemycin; Mepatar; Naphthacenecarboxamide, 4-(dimethylamino)-1,4,4a,5,5a,6,11,12a-octahydro-3,5,6,10,12,12a-he
xahydroxy-6-methyl-1,11-dioxo-, monohydrochloride, (4S-(4alpha,4aalpha,5alpha,5aalpha,6beta,12aalpha))-; otetryn; oxlopar; oxyject 100; Oxytet; Oxytetracycline hydrochloride, can be used as secondary
standard; OXY WS; terramycin hydrochloride; tetramine; tetran hydrochloride.

> <CAS>
2058-46-0

> <Reference>
NTP315

> <MolWeight>
495.94

> <Formula>
C22H24N2O9

> <SMILES>
O[C@@]12C([C@H](C3[C@](C4=C(C(=CC=C4)O)C(=O)C/3=C\1O)(C)O)O)[C@@H](/C(=C(\C2=O)C(=O)N)O)N(C)C.Cl

> <TD50_Rat>
NP

> <TD50_Mouse>
NP

> <Canc>
2

> <SAL>
1

> <Rat_Male_Canc>
2

> <Rat_Female_Canc>
2

> <Mouse_Male_Canc>
1

> <Mouse_Female_Canc>
1

> <Rat_Male_NTP>
EE

> <Rat_Female_NTP>
EE

> <Mouse_Male_NTP>
NE

> <Mouse_Female_NTP>
NE

> <Status>
Non-Carcinogen

> <CanonicalTautomer>
Yes

> <NumberOfTautomers>
9

> <New_Data>
true

> <iscarc>
0

$$$$
Phenylephrine Hydrochloride
  SciTegic06161615512D

 12 12  0  0  1  0            999 V2000
    0.6626   -2.3040    0.0000 C   0  0
    0.0000   -1.1595    0.0000 C   0  0
    1.9878    0.0000    0.0000 C   0  0
    2.6504   -1.1595    0.0000 C   0  0
    0.6626    0.0000    0.0000 C   0  0
    1.9878   -2.3040    0.0000 C   0  0
    0.0000   -3.4485    0.0000 O   0  0
    3.9755   -1.1595    0.0000 C   0  0  1  0  0  0
    4.6532   -2.3040    0.0000 C   0  0
    4.6532    0.0000    0.0000 O   0  0
    3.9755   -3.4485    0.0000 N   0  0
    4.6532   -4.6080    0.0000 C   0  0
  1  2  2  0
  1  6  1  0
  1  7  1  0
  2  5  1  0
  3  4  1  0
  3  5  2  0
  4  6  2  0
  4  8  1  0
  8  9  1  0
  8 10  1  6
  9 11  1  0
 11 12  1  0
M  END
> <Name>
Phenylephrine Hydrochloride

> <Substance ID>
276

> <Synonyms>
3-Hydroxy-alpha-(methylaminomethyl)benzyl alcohol hydrochloride; (-)-m-hydroxy-alpha-((methylamino)methyl)benzyl alcohol hydrochloride; (-)-3-hydroxy-alpha-((methylamino)methyl)benzenemethanol, hydroc
hloride; meta-Synephrine hydrochloride; biomydrin; consdrin hydrochloride; D-(-)-phenylephrine hydrochloride; isophrin hydrochloride; L-1-(m-hydroxyphenyl)-2-methyl-aminoethanol hydrochloride; L-Pheny
lephrine Hydrochloride; neosynephrine hydrocholride; (R)-3-hydroxy-a-[(methylamino)methyl]-benzenemethanol hydrochloride.

> <CAS>
61-76-7

> <Reference>
NTP322

> <MolWeight>
202.71

> <Formula>
C9H13NO2

> <SMILES>
C1([C@H](CNC)O)(=CC(=CC=C1)O).Cl

> <TD50_Rat>
NP

> <TD50_Mouse>
NP

> <Canc>
1

> <SAL>
1

> <Rat_Male_Canc>
1

> <Rat_Female_Canc>
1

> <Mouse_Male_Canc>
1

> <Mouse_Female_Canc>
1

> <Rat_Male_NTP>
NE

> <Rat_Female_NTP>
NE

> <Mouse_Male_NTP>
NE

> <Mouse_Female_NTP>
NE

> <Status>
Non-Carcinogen

> <New_Data>
true

> <iscarc>
0

$$$$
Rotenone
  SciTegic06161615512D

 29 33  0  0  1  0            999 V2000
    3.4627   -1.9914    0.0000 O   0  0
    4.6169   -2.6636    0.0000 C   0  0
    5.7584   -1.9914    0.0000 C   0  0
    4.6169   -3.9827    0.0000 C   0  0  2  0  0  0
    6.9127   -2.6636    0.0000 C   0  0
    5.7584   -0.6596    0.0000 C   0  0
    5.7584   -4.6549    0.0000 C   0  0
    3.4627   -4.6549    0.0000 C   0  0
    8.0669   -1.9914    0.0000 C   0  0
    6.9127   -3.9827    0.0000 O   0  0
    6.9127    0.0000    0.0000 C   0  0
    5.7584   -5.9867    0.0000 C   0  0
    3.4627   -5.9867    0.0000 C   0  0
    2.3084   -3.9827    0.0000 C   0  0
    8.0669   -0.6596    0.0000 C   0  0
    9.3353   -2.4099    0.0000 C   0  0
    4.6169   -6.6463    0.0000 O   0  0
    2.3084   -6.6463    0.0000 C   0  0
    1.1542   -4.6549    0.0000 C   0  0
    9.3353   -0.2537    0.0000 O   0  0
   10.1090   -1.3318    0.0000 C   0  0  1  0  0  0
    1.1542   -5.9867    0.0000 C   0  0
    0.0000   -3.9827    0.0000 O   0  0
   11.4408   -1.3318    0.0000 C   0  0
    0.0000   -6.6463    0.0000 O   0  0
    0.0000   -2.6636    0.0000 C   0  0
   12.1003   -2.4860    0.0000 C   0  0
   12.1003   -0.1776    0.0000 C   0  0
    0.0000   -7.9781    0.0000 C   0  0
  1  2  2  0
  2  3  1  0
  2  4  1  0
  3  5  2  0
  3  6  1  0
  4  7  1  6
  4  8  1  0
  5  9  1  0
  5 10  1  0
  6 11  2  0
  7 10  1  0
  7 12  1  0
  8 13  2  0
  8 14  1  0
  9 15  2  0
  9 16  1  0
 11 15  1  0
 12 17  1  0
 13 17  1  0
 13 18  1  0
 14 19  2  0
 15 20  1  0
 16 21  1  0
 18 22  2  0
 19 22  1  6
 19 23  1  0
 20 21  1  0
 21 24  1  1
 22 25  1  0
 23 26  1  1
 24 27  1  0
 24 28  2  0
 25 29  1  1
M  END
> <Name>
Rotenone

> <Substance ID>
278

> <Synonyms>
1,2,12,12a-tetrahydro-2alpha-isopropenyl-8,9-dimethoxy(1)benzopyrano(3,4-b)furo(2,3-h)(1)benzopyran-6(6aH)-one; 1,2,12,12a-tetrahydro-8,9-dimethoxy-2-(1-methylethenyl)-(1)benzopyrano(3,4-b)furo(2,3-h)
(1)benzopyran-6(6aH)-one, (2R-(2alpha, 6alpha-12aalpha))-; [2R-(2alpha,6aalpha,12aalpha)]-1,2,12,12a-tetrahydro-8,9-dimethoxy-2-(1-methylethenyl)-[1]Benzopyrano[3,4-b]furo[2,3-h][1]benzopyran-6(6aH)-o
ne; (2R,6a5,12axS)-1,2,12,12a-tetrahydro-2a-isopropenyl-8,9-dimethoxy(1)benzopyrano(3,4-b)furo(2,3-H)(1)benzopyran-6(6aH)-one; paraderil; barbasco; Benzopyrano[3,4-b]furo[2,3-h][1]benzopyran-6(6aH)-on
e, 1,2,12,12a-tetrahydro-8,9-dimethoxy-2-(1-methylethenyl)-, ([2.2.1]R-([2.2.1]alpha,6aalpha,[2.2.1][2.2.1]aalpha))-; Chem-Fish; chem-mite; Cubor; cube root; dactinol; Deril; derrin; Derris; dri-kil;
extrax; fish-tox; Foliafume; green cross warble; haiari; Hydrogenated rotenone; mexide; nicouline; Noxfire; Noxfish; Nusyn; Nusyn-Noxfish; PB-Nox; Prenfish; pro-nox fish; RO-KO; ronone; Rotacide; rote
five; rotefour; (-)-rotenone; Rotenone ; Rotenone, hydrogenated; rotessenol; rotocide; Synpren; Tubatoxin; tubotoxin.

> <CAS>
83-79-4

> <Reference>
NTP320

> <MolWeight>
394.42

> <Formula>
C23H22O6

> <SMILES>
O=C1C2=CC=C3C(=C2OC4C1C5=C(C=C(C(=C5)OC)OC)OC4)CC(O3)C(=C)C

> <TD50_Rat>
NP

> <TD50_Mouse>
NP

> <Canc>
2

> <SAL>
1

> <Rat_Male_Canc>
2

> <Rat_Female_Canc>
1

> <Mouse_Male_Canc>
1

> <Mouse_Female_Canc>
1

> <Rat_Male_NTP>
EE

> <Rat_Female_NTP>
NE

> <Mouse_Male_NTP>
NE

> <Mouse_Female_NTP>
NE

> <Status>
Non-Carcinogen

> <New_Data>
true

> <iscarc>
0

$$$$
Tetracycline Hydrochloride
  SciTegic06161615512D

 32 35  0  0  1  0            999 V2000
    0.0000   -3.9852    0.0000 C   0  0
    0.0000   -2.6611    0.0000 C   0  0
    1.1553   -1.9991    0.0000 C   0  0
    1.1553   -4.6602    0.0000 C   0  0
    2.2977   -3.9852    0.0000 C   0  0
    2.2977   -2.6611    0.0000 C   0  0
    3.4530   -1.9991    0.0000 C   0  0  1  0  0  0
    3.4530   -4.6602    0.0000 C   0  0
    4.6083   -3.9852    0.0000 C   0  0
    4.6083   -2.6611    0.0000 C   0  0
    5.7637   -1.9991    0.0000 C   0  0
    5.7637   -4.6602    0.0000 C   0  0
    6.9060   -3.9852    0.0000 C   0  0  2  0  0  0
    6.9060   -2.6611    0.0000 C   0  0
    8.0613   -1.9991    0.0000 C   0  0  2  0  0  0
    9.2167   -2.6611    0.0000 C   0  0
    9.2167   -3.9852    0.0000 C   0  0
    8.0613   -4.6602    0.0000 C   0  0
    1.1553   -5.9843    0.0000 O   0  0
    5.7637   -5.9843    0.0000 O   0  0
   10.3720   -4.6602    0.0000 C   0  0
   10.3720   -5.9843    0.0000 N   0  0
   10.3720   -1.9991    0.0000 O   0  0
    2.7910   -0.8438    0.0000 O   0  0
    4.1150   -0.8438    0.0000 C   0  0
    8.0613   -5.9843    0.0000 O   0  0
   11.5143   -3.9852    0.0000 O   0  0
    8.0613   -0.6620    0.0000 N   0  0
    6.9060   -5.3223    0.0000 O   0  0
    3.4530   -5.9843    0.0000 O   0  0
    9.2167    0.0000    0.0000 C   0  0
    6.9060    0.0000    0.0000 C   0  0
  1  2  2  0
  1  4  1  0
  2  3  1  0
  3  6  2  0
  4  5  2  0
  4 19  1  0
  5  6  1  0
  5  8  1  0
  6  7  1  0
  7 10  1  0
  7 24  1  0
  7 25  1  1
  8  9  1  0
  8 30  2  0
  9 10  1  0
  9 12  2  0
 10 11  1  0
 11 14  1  0
 12 13  1  0
 12 20  1  0
 13 14  1  0
 13 18  1  0
 13 29  1  1
 14 15  1  0
 15 16  1  0
 15 28  1  1
 16 17  1  0
 16 23  2  0
 17 18  2  0
 17 21  1  0
 18 26  1  0
 21 22  1  0
 21 27  2  0
 28 31  1  0
 28 32  1  0
M  END
> <Name>
Tetracycline Hydrochloride

> <Substance ID>
279

> <Synonyms>
2-Naphthacenecarboxamide, 4-(dimethylamino)-1,4,4a,5,5a,6,11,12a-octahydro-3,6,10,12,12a-pentahydroxy-6-methyl-1,11-dioxo-, monohydrochloride, [4S-(4alpha,4aalpha,5aalpha,6beta,12aalpha)]-; 4-(dimethy
lamino)-1,4,4a,5,5a,6,11,12a-octahydro-3,6,10,12,12a-pentahydroxy-6-methyl-1,11-dioxo-2-naphthacenecarboxamide, mono-hydrochloride; Abricycline; Achro; achromycin; achromycin hydrochloride; Agromicina
; Ala Tet; Ambracyn; Ambramicina; Ambramycin; Artomycin; artromycin; Diacycline; Bio-Tetra; Bristaciclina; cancycline-250; Cefracycline; Criseociclina; Cyclomycin; Cyclopar; deschlorobiomycin; Democra
cin; Dumocyclin; fermentmycin; Helvecyclin; Hostacyclin; Imex; Mephacyclin; Naphthacenecarboxamide, 4-(dimethylamino)-1,4,4a,5,5a,6,11,12a-octahydro-3,6,10,12,12a-pentahydroxy-6-methyl-1,11-dioxo-, mo
nohydrachloride, (4S-(4alpha,4aalpha,5aalpha,6beta,12aalpha)); paltet; Partrex; Polycycline; polycycline hydrochloride; Purocyclina; Quadracycline; Quatrex; Remicyclin; Ricycline; Ro-cycline; Sanclomy
cine; Steclin; steclin hydrochloride; Stilciclina; Subamycin; Supramycine; Sustamycin; Tefilin; Teline; Telotrex; Tet-cy; Tetrabakat; Tetrabid; Tetrablet; Tetrabon; tetracaps; Tetrachel; Tetracompren;
 tetracycline chloride; Tetracycline hydrochloride, [can be used as secondary standard]; Tetra-D; Tetradecin; Tetrakap; Tetralution; Tetramavan; Tetramycin; Tetra-Wedel; Tetrosol; Topicycline; Totomyc
in; Triphacyclin; Tsiklomitsin; U-5965; Unicin; Unimycin; Vetquamycin-324; Omegamycin.

> <CAS>
64-75-5

> <Reference>
NTP344

> <MolWeight>
479.94

> <Formula>
C22H24N2O8

> <SMILES>
O=C(N)/C1=C(\O)[C@@H](N(C)C)C2CC4C(=C(\O)[C@]2(O)C1=O)\C(=O)c3c(cccc3O)[C@]4(O)C.Cl

> <TD50_Rat>
NP

> <TD50_Mouse>
NP

> <Canc>
1

> <SAL>
1

> <Rat_Male_Canc>
1

> <Rat_Female_Canc>
1

> <Mouse_Male_Canc>
1

> <Mouse_Female_Canc>
1

> <Rat_Male_NTP>
NE

> <Rat_Female_NTP>
NE

> <Mouse_Male_NTP>
NE

> <Mouse_Female_NTP>
NE

> <Status>
Non-Carcinogen

> <CanonicalTautomer>
Yes

> <NumberOfTautomers>
9

> <New_Data>
true

> <iscarc>
0

$$$$
DL-Amphetamine Sulfate
  SciTegic06161615512D

 20 20  0  0  0  0            999 V2000
    3.9912    0.0000    0.0000 C   0  0
    5.3172    0.0000    0.0000 C   0  0
    5.9868   -1.1422    0.0000 C   0  0
    5.3172   -2.2976    0.0000 C   0  0
    3.9912   -2.2976    0.0000 C   0  0
    3.3216   -1.1422    0.0000 C   0  0
    1.9956   -1.1422    0.0000 C   0  0
    1.3260   -2.2976    0.0000 C   0  0
    0.0000   -2.2976    0.0000 N   0  0
    1.9956   -3.4529    0.0000 C   0  0
    7.0896   -3.9912    0.0000 C   0  0
    8.4287   -3.9912    0.0000 C   0  0
    9.0852   -5.1334    0.0000 C   0  0
    8.4287   -6.2887    0.0000 C   0  0
    7.0896   -6.2887    0.0000 C   0  0
    6.4200   -5.1334    0.0000 C   0  0
    5.0940   -5.1334    0.0000 C   0  0
    4.4244   -6.2887    0.0000 C   0  0
    3.0984   -6.2887    0.0000 N   0  0
    5.0940   -7.4441    0.0000 C   0  0
  1  2  2  0
  1  6  1  0
  2  3  1  0
  3  4  2  0
  4  5  1  0
  5  6  2  0
  6  7  1  0
  7  8  1  0
  8  9  1  0
  8 10  1  0
 11 12  2  0
 11 16  1  0
 12 13  1  0
 13 14  2  0
 14 15  1  0
 15 16  2  0
 16 17  1  0
 17 18  1  0
 18 19  1  0
 18 20  1  0
M  END
> <Name>
DL-Amphetamine Sulfate

> <Substance ID>
295

> <Synonyms>
(+-)-2-amino-1-phenylpropane sulfate; (+-)-amphetamine sulfate; Alentol; amphamine sulfate; Amphedrine Sulfate; Amphetamine sulfate; Amphoids-S; Benzedrine Sulfate; Linampheta; phenisopropylamine sulf
ate; Psychoton; Simpamina.

> <CAS>
60-13-9

> <Reference>
NTP387

> <MolWeight>
368.49

> <Formula>
C18H26N2

> <SMILES>
N[C@@H](Cc1ccccc1)C.N[C@@H](C)Cc1ccccc1.S(=O)(=O)(O)(O)

> <TD50_Rat>
NP

> <TD50_Mouse>
NP

> <Canc>
1

> <SAL>
2

> <Rat_Male_Canc>
1

> <Rat_Female_Canc>
1

> <Mouse_Male_Canc>
1

> <Mouse_Female_Canc>
1

> <Rat_Male_NTP>
NE

> <Rat_Female_NTP>
NE

> <Mouse_Male_NTP>
NE

> <Mouse_Female_NTP>
NE

> <Status>
Non-Carcinogen

> <New_Data>
true

> <iscarc>
0

$$$$
gamma-Butyrolactone
  SciTegic06161615512D

  6  6  0  0  0  0            999 V2000
    1.9631   -1.4945    0.0000 O   0  0
    2.1024   -2.8243    0.0000 C   0  0
    0.8866   -3.3562    0.0000 C   0  0
    0.0000   -2.3684    0.0000 C   0  0
    0.6586   -1.2158    0.0000 C   0  0
    0.1267    0.0000    0.0000 O   0  0
  1  2  1  0
  1  5  1  0
  2  3  1  0
  3  4  1  0
  4  5  1  0
  5  6  2  0
M  END
> <Name>
gamma-Butyrolactone

> <Substance ID>
299

> <Synonyms>
1,4-Butanolide; 1,4-Lactone; 4-Butyrolactone; 4-Butanolide; 4-deoxytetronic acid; 4-Hydroxybutyric Acid Lactone; 4-hydroxybutyric acid, gamma-lactone; dihydro-2(3H)-furanone; BLO; BLON; butyrl lactone
; Butyric Acid Lactone; Butyrolactone; butyrylactone; Hydroxybutanoic Acid Lactone; sigma-Butyrolactone; tetrahydro-2-furanone; Tetrahydro-2-Furanone Dihydro-2(3H)-Furanone; gamma-6480; gamma BL; gamm
a-hydroxybutyric acid cyclic ester; gamma-hydroxybutyric acid lactone.

> <CAS>
96-48-0

> <Reference>
NTP406

> <MolWeight>
86.09

> <Formula>
C4H6O2

> <SMILES>
O=C1CCCO1

> <TD50_Rat>
NP

> <TD50_Mouse>
NP

> <Canc>
2

> <SAL>
1

> <Rat_Male_Canc>
1

> <Rat_Female_Canc>
1

> <Mouse_Male_Canc>
2

> <Mouse_Female_Canc>
1

> <Rat_Male_NTP>
NE

> <Rat_Female_NTP>
NE

> <Mouse_Male_NTP>
EE

> <Mouse_Female_NTP>
NE

> <Status>
Carcinogen

> <New_Data>
true

> <iscarc>
1

$$$$
Tricresyl Phosphate
  SciTegic06161615513D

 26 28  0  0  0  0            999 V2000
    4.7805   -4.7355    1.3632 P   0  0
    5.5592   -3.6261    1.8907 O   0  0
    3.4067   -4.4005    1.0279 O   0  0
    5.1527   -5.9409    2.0678 O   0  0
    5.7897   -4.8150    0.2405 O   0  0
    2.2941   -4.8183    1.6164 C   0  0
    4.6375   -7.1138    1.7314 C   0  0
    5.0350   -2.4011    2.0512 C   0  0
    5.7804   -1.4846    2.3977 C   0  0
    4.0997    0.0000    2.4192 C   0  0
    3.2807   -0.9907    2.0410 C   0  0
    5.2935   -0.2313    2.5865 C   0  0
    1.2430   -4.4197    1.1068 C   0  0
    0.0000   -5.5314    2.5792 C   0  0
    1.1456   -5.9646    3.1581 C   0  0
    0.0514   -4.7880    1.6065 C   0  0
    2.2374   -5.6189    2.7081 C   0  0
    3.6224   -9.4430    1.2146 C   0  0
    4.5739   -9.3209    2.1600 C   0  0
    3.2646   -8.4571    0.5755 C   0  0
    5.0590   -8.2193    2.4055 C   0  0
    6.0556   -8.1075    3.3614 C   0  0
    7.1297   -1.7238    2.5924 C   0  0
    3.8011   -7.2432    0.8386 C   0  0
    3.7267   -2.1201    1.8624 C   0  0
    1.2970   -3.5861    0.0000 C   0  0
  1  2  1  0
  1  3  1  0
  1  4  1  0
  1  5  2  0
  2  8  1  0
  3  6  1  0
  4  7  1  0
  6 13  2  0
  6 17  1  0
  7 24  2  0
  7 21  1  0
  8  9  2  0
  8 25  1  0
  9 12  1  0
  9 23  1  0
 10 11  1  0
 10 12  2  0
 11 25  2  0
 13 16  1  0
 13 26  1  0
 14 15  1  0
 14 16  2  0
 15 17  2  0
 18 19  1  0
 18 20  2  0
 19 21  2  0
 20 24  1  0
 21 22  1  0
M  END
> <Name>
Tricresyl Phosphate

> <Substance ID>
301

> <Synonyms>
disflamoll tkp; Celluflex; celluflex 179c; cresyl phosphate; Durad; flexol plasticizer tcp; fyrquel 150; imol s 140; Kronitex; Lindol; Phosphoric acid, tolyl ester; Phosphoric acid tris(methylphenyl)
ester; phosphoric acid, tritolyl ester; PX-917; Tolylphosphate; Tricresyl phosphates; tris(methylphenyl)ester of phosphoric acid; tris(tolyloxy)phosphine oxide; Tritolyl phosphate; Union carbide flexo
l TCP.

> <CAS>
1330-78-5

> <Reference>
NTP433

> <MolWeight>
368.37

> <Formula>
C21H21O4P

> <SMILES>
P(OC1=C(C=CC=C1)C)(OC2=CC=CC=C2C)(OC3=C(C=CC=C3)C)=O

> <TD50_Rat>
NP

> <TD50_Mouse>
NP

> <Canc>
1

> <SAL>
1

> <Rat_Male_Canc>
1

> <Rat_Female_Canc>
1

> <Mouse_Male_Canc>
1

> <Mouse_Female_Canc>
1

> <Rat_Male_NTP>
NE

> <Rat_Female_NTP>
NE

> <Mouse_Male_NTP>
NE

> <Mouse_Female_NTP>
NE

> <Status>
Non-Carcinogen

> <New_Data>
true

> <iscarc>
0

$$$$
o-Benzyl-p-Chlorophenol
  SciTegic06161615512D

 15 16  0  0  0  0            999 V2000
    0.6589   -4.6123    0.0000 C   0  0
    0.0000   -3.4592    0.0000 C   0  0
    1.9894   -2.3062    0.0000 C   0  0
    2.6609   -3.4592    0.0000 C   0  0
    0.6589   -2.3062    0.0000 C   0  0
    1.9894   -4.6123    0.0000 C   0  0
    0.0000   -1.1531    0.0000 Cl  0  0
    2.6609   -5.7654    0.0000 O   0  0
    3.9914   -3.4592    0.0000 C   0  0
    4.6503   -2.3062    0.0000 C   0  0
    3.9914   -1.1531    0.0000 C   0  0
    5.9808    0.0000    0.0000 C   0  0
    6.6397   -1.1531    0.0000 C   0  0
    4.6503    0.0000    0.0000 C   0  0
    5.9808   -2.3062    0.0000 C   0  0
  1  2  2  0
  1  6  1  0
  2  5  1  0
  3  4  1  0
  3  5  2  0
  4  6  2  0
  4  9  1  0
  5  7  1  0
  6  8  1  0
  9 10  1  0
 10 11  2  0
 10 15  1  0
 11 14  1  0
 12 13  1  0
 12 14  2  0
 13 15  2  0
M  END
> <Name>
o-Benzyl-p-Chlorophenol

> <Substance ID>
302

> <Synonyms>
4-chloro-2-(phenylmethyl)phenol; 4-chloro-alpha-phenyl-ortho-cresol; 5-chloro-2-hydroxydiphenylmethane; Benzyl-p-chlorophenol; benzylchlorophenol; Bio-clave; Chlorophene; clorofene; ketolin-h; Cresol,
 4-chloro-alpha-phenyl-; Neosobenil; Preventol B; Santophen; santophen 1; Sentiphene; Septiphene.

> <CAS>
120-32-1

> <Reference>
NTP424

> <MolWeight>
218.68

> <Formula>
C13H11ClO

> <SMILES>
OC1=C(C=C(C=C1)Cl)CC2=CC=CC=C2

> <TD50_Rat>
NP

> <TD50_Mouse>
1350

> <Canc>
3

> <SAL>
1

> <Rat_Male_Canc>
1

> <Rat_Female_Canc>
2

> <Mouse_Male_Canc>
3

> <Mouse_Female_Canc>
1

> <Rat_Male_NTP>
NE

> <Rat_Female_NTP>
EE

> <Mouse_Male_NTP>
SE

> <Mouse_Female_NTP>
NE

> <Status>
Carcinogen

> <New_Data>
true

> <iscarc>
1

$$$$
2,2-bis(bromomethyl)-1,3-propanediol
  SciTegic06161615512D

  9  8  0  0  0  0            999 V2000
    1.9917   -2.3047    0.0000 C   0  0
    2.6604   -1.1524    0.0000 C   0  0
    1.9917    0.0000    0.0000 Br  0  0
    1.3231   -3.4571    0.0000 C   0  0
    0.8394   -1.6361    0.0000 C   0  0
    3.1441   -2.9734    0.0000 C   0  0
    0.0000   -3.4571    0.0000 Br  0  0
    0.8394   -0.3130    0.0000 O   0  0
    4.2965   -2.3047    0.0000 O   0  0
  1  2  1  0
  1  4  1  0
  1  5  1  0
  1  6  1  0
  2  3  1  0
  4  7  1  0
  5  8  1  0
  6  9  1  0
M  END
> <Name>
2,2-bis(bromomethyl)-1,3-propanediol

> <Substance ID>
303

> <Synonyms>
1,3-dibromo-2,2-dimethylolpropane; dibromohydrin pentaerythritol; bisbromomethylpropanediol; bis(bromomethyl)propanol; Dibromoneopentyl glycol; dibromopentaerythritol; FR-1138; pentaerythritol dibromo
hydrin; pentaerythritol dibromide.

> <CAS>
3296-90-0

> <Reference>
NTP452

> <MolWeight>
261.94

> <Formula>
C5H10Br2O2

> <SMILES>
OCC(CO)(CBr)CBr

> <TD50_Rat>
111

> <TD50_Mouse>
137

> <Canc>
3

> <SAL>
3

> <Rat_Male_Canc>
3

> <Rat_Female_Canc>
3

> <Mouse_Male_Canc>
3

> <Mouse_Female_Canc>
3

> <Rat_Male_NTP>
CE

> <Rat_Female_NTP>
CE

> <Mouse_Male_NTP>
CE

> <Mouse_Female_NTP>
CE

> <Status>
Carcinogen

> <New_Data>
true

> <iscarc>
1

$$$$
t-Butyl Alcohol
  SciTegic06161615512D

  5  4  0  0  0  0            999 V2000
    0.0000   -1.3382    0.0000 C   0  0
    1.3382   -1.3382    0.0000 C   0  0
    1.3382    0.0000    0.0000 C   0  0
    1.3382   -2.6600    0.0000 O   0  0
    2.6600   -1.3382    0.0000 C   0  0
  1  2  1  0
  2  3  1  0
  2  4  1  0
  2  5  1  0
M  END
> <Name>
t-Butyl Alcohol

> <Substance ID>
304

> <Synonyms>
1,1-Dimethylethanol; 2-Methyl-2-propanol; 2-Methylpropan-2-ol; Dimethylethanol; Methyl-2-propanol; TBA; tert-Butanol; t-butyl hydroxide; tertiary-butyl alcohol; Trimethylcarbinol; trimethyl methanol.

> <CAS>
75-65-0

> <Reference>
NTP436

> <MolWeight>
74.12

> <Formula>
C4H10O

> <SMILES>
C(C)(C)(C)O

> <TD50_Rat>
64.6

> <TD50_Mouse>
21900

> <Canc>
3

> <SAL>
1

> <Rat_Male_Canc>
3

> <Rat_Female_Canc>
1

> <Mouse_Male_Canc>
2

> <Mouse_Female_Canc>
3

> <Rat_Male_NTP>
SE

> <Rat_Female_NTP>
NE

> <Mouse_Male_NTP>
EE

> <Mouse_Female_NTP>
SE

> <Status>
Carcinogen

> <New_Data>
true

> <iscarc>
1

$$$$
Theophyllin
  SciTegic06161615512D

 13 14  0  0  0  0            999 V2000
    3.4555   -1.9872    0.0000 C   0  0
    3.4555   -3.3162    0.0000 C   0  0
    4.7212   -3.7339    0.0000 N   0  0
    5.5060   -2.6581    0.0000 C   0  0
    4.7212   -1.5822    0.0000 N   0  0
    1.1518   -1.9872    0.0000 N   0  0
    1.1518   -3.3162    0.0000 C   0  0
    2.3037   -3.9871    0.0000 N   0  0
    2.3037   -1.3290    0.0000 C   0  0
    0.0000   -3.9871    0.0000 O   0  0
    2.3037    0.0000    0.0000 O   0  0
    2.3037   -5.3161    0.0000 C   0  0
    0.0000   -1.3290    0.0000 C   0  0
  1  2  2  0
  1  5  1  0
  1  9  1  0
  2  3  1  0
  2  8  1  0
  3  4  1  0
  4  5  2  0
  6  7  1  0
  6  9  1  0
  6 13  1  0
  7  8  1  0
  7 10  2  0
  8 12  1  0
  9 11  2  0
M  END
> <Name>
Theophyllin

> <Substance ID>
307

> <Synonyms>
1,3-Dimethyl-2,6-dioxo-1,2,3,6-tetrahydropurine; 1,3-Dimethylxanthine; Theokin; Theolair; Theo-Organidin; Theophyl-225; Theospan; Uniphyllin continus; 1H-purine-2,6-dione; 3,7-dihydro-1,3-dimethyl-1H-
purine-2,6-dione; Aerolate; Austyn; Bronchodid Duracap; Bronkodyl; Bronkotabs; Elixicon; Elixophyllin; Hylate; Labophylline; LASMA; Mudrane; Nuelin; Nuelin SA; Pro-vent; pseudotheophylline; Quadrinal;
 Respbid; Slo-Phyllin; Synophylate; Theobid; theocin; Theo-Dur.

> <CAS>
58-55-9

> <Reference>
NTP473

> <MolWeight>
180.17

> <Formula>
C7H8N4O2

> <SMILES>
CN1C(=O)N(C)c2ncnc2C1(=O)

> <TD50_Rat>
NP

> <TD50_Mouse>
NP

> <Canc>
1

> <SAL>
1

> <Rat_Male_Canc>
1

> <Rat_Female_Canc>
1

> <Mouse_Male_Canc>
1

> <Mouse_Female_Canc>
1

> <Rat_Male_NTP>
NE

> <Rat_Female_NTP>
NE

> <Mouse_Male_NTP>
NE

> <Mouse_Female_NTP>
NE

> <Status>
Non-Carcinogen

> <CanonicalTautomer>
Yes

> <NumberOfTautomers>
3

> <New_Data>
true

> <iscarc>
0

$$$$
Chloramine
  SciTegic06161615512D

  2  1  0  0  0  0            999 V2000
    0.0000   -0.6599    0.0000 N   0  0
    1.1548    0.0000    0.0000 Cl  0  0
  1  2  1  0
M  END
> <Name>
Chloramine

> <Substance ID>
312

> <Synonyms>
Chloramide; chloramine/chlorine; monochloramide; Monochloroamine; Monochloramine; monochloroammonia.

> <CAS>
10599-90-3

> <Reference>
NTP392

> <MolWeight>
51.48

> <Formula>
H2ClN

> <SMILES>
NCl

> <TD50_Rat>
NP

> <TD50_Mouse>
NP

> <Canc>
2

> <SAL>
ND

> <Rat_Male_Canc>
1

> <Rat_Female_Canc>
2

> <Mouse_Male_Canc>
1

> <Mouse_Female_Canc>
1

> <Rat_Male_NTP>
NE

> <Rat_Female_NTP>
EE

> <Mouse_Male_NTP>
NE

> <Mouse_Female_NTP>
NE

> <Status>
Non-Carcinogen

> <New_Data>
true

> <iscarc>
0

$$$$
Methyl Bromide
  SciTegic06161615512D

  2  1  0  0  0  0            999 V2000
    0.0000    0.0000    0.0000 C   0  0
    1.3300    0.0000    0.0000 Br  0  0
  1  2  1  0
M  END
> <Name>
Methyl Bromide

> <Substance ID>
313

> <Synonyms>
Metafume; Brom-O-Gas; Brom-O-Gaz; Brom-O-Sol; bromomethane; Bromomethane; Celfume; curafume; Dowfume; dowfume mc-2; dowfume mc-33; EDCO; embafume; Halon 1001; haltox; iscobrome; Kayafume; MB; MBX; MeB
r; Meth-O-Gas; methogas; monobromomethane; profume; Rotox; terabol; Terr-O-Gas; terr-o-gas 100; Zytox.

> <CAS>
74-83-9

> <Reference>
NTP385 & CPDB

> <MolWeight>
94.94

> <Formula>
CH3Br

> <SMILES>
CBr

> <TD50_Rat>
NP

> <TD50_Mouse>
NP

> <Canc>
1

> <SAL>
3

> <Rat_Male_Canc>
1

> <Rat_Female_Canc>
1

> <Mouse_Male_Canc>
1

> <Mouse_Female_Canc>
1

> <Rat_Male_NTP>
ND

> <Rat_Female_NTP>
ND

> <Mouse_Male_NTP>
NE

> <Mouse_Female_NTP>
NE

> <Status>
Non-Carcinogen

> <New_Data>
true

> <iscarc>
0

$$$$
4-Nitrobenzoic acid
  SciTegic06161615512D

 12 12  0  0  0  0            999 V2000
    2.3045   -2.6590    0.0000 C   0  0
    2.3045   -3.9885    0.0000 C   0  0
    0.0000   -3.9885    0.0000 C   0  0
    0.0000   -2.6590    0.0000 C   0  0
    1.1522   -4.6469    0.0000 C   0  0
    1.1522   -1.9879    0.0000 C   0  0
    1.1522   -0.6584    0.0000 C   0  0
    1.1522   -5.9764    0.0000 N   0  3
    0.0000   -6.6475    0.0000 O   0  5
    2.3045   -6.6475    0.0000 O   0  0
    2.3045    0.0000    0.0000 O   0  0
    0.0000    0.0000    0.0000 O   0  0
  1  2  2  0
  1  6  1  0
  2  5  1  0
  3  4  1  0
  3  5  2  0
  4  6  2  0
  5  8  1  0
  6  7  1  0
  7 11  2  0
  7 12  1  0
  8  9  1  0
  8 10  2  0
M  CHG  2   8   1   9  -1
M  END
> <Name>
4-Nitrobenzoic acid

> <Substance ID>
314

> <Synonyms>
1-carboxy-4-nitrobenzene; p-nitrobenzenecarboxylic acid; 4-nitrodracylic acid; PNBA.

> <CAS>
62-23-7

> <Reference>
NTP442

> <MolWeight>
167.12

> <Formula>
C7H5NO4

> <SMILES>
OC(=O)C1=CC=C(C=C1)[N+](=O)[O-]

> <TD50_Rat>
287

> <TD50_Mouse>
NP

> <Canc>
3

> <SAL>
3

> <Rat_Male_Canc>
1

> <Rat_Female_Canc>
3

> <Mouse_Male_Canc>
1

> <Mouse_Female_Canc>
1

> <Rat_Male_NTP>
NE

> <Rat_Female_NTP>
SE

> <Mouse_Male_NTP>
NE

> <Mouse_Female_NTP>
NE

> <Status>
Non-Carcinogen

> <New_Data>
true

> <iscarc>
0

$$$$
Tris(2-chloroethyl)phosphate
  SciTegic06161615512D

 14 13  0  0  0  0            999 V2000
    3.9995   -3.9804    0.0000 P   0  0
    5.3200   -3.9804    0.0000 O   0  0
    3.9995   -2.6600    0.0000 O   0  0
    2.6600   -3.9804    0.0000 O   0  0
    3.9995   -5.3200    0.0000 O   0  0
    2.8322   -1.9902    0.0000 C   0  0
    2.8322   -0.6698    0.0000 C   0  0
    1.9902   -2.8322    0.0000 C   0  0
    0.6698   -2.8322    0.0000 C   0  0
    2.8322   -5.9898    0.0000 C   0  0
    2.8322   -7.3102    0.0000 C   0  0
    1.6840    0.0000    0.0000 Cl  0  0
    0.0000   -1.6840    0.0000 Cl  0  0
    1.6840   -7.9800    0.0000 Cl  0  0
  1  2  2  0
  1  3  1  0
  1  4  1  0
  1  5  1  0
  3  6  1  0
  4  8  1  0
  5 10  1  0
  6  7  1  0
  7 12  1  0
  8  9  1  0
  9 13  1  0
 10 11  1  0
 11 14  1  0
M  END
> <Name>
Tris(2-chloroethyl)phosphate

> <Substance ID>
315

> <Synonyms>
2-chloroethanol phosphate; 2-chloro-ethanol phosphate (3:1); 3CF; disflamoll tca; celluflex cef; fyrol cef; fyrol cf; genomoll p; niax 3cf; niax flame retardant 3cf; phosphoric acid, tris(2-chloroethy
l)ester; TCEP; tris(2-chloroethyl) orthophosphate; tris(beta-chloroethyl) phosphate; tris(chloroethyl) phosphate.

> <CAS>
115-96-8

> <Reference>
NTP391

> <MolWeight>
285.49

> <Formula>
C6H12Cl3O4P

> <SMILES>
O=P(OCCCl)(OCCCl)OCCCl

> <TD50_Rat>
86.7

> <TD50_Mouse>
NP

> <Canc>
3

> <SAL>
1

> <Rat_Male_Canc>
3

> <Rat_Female_Canc>
3

> <Mouse_Male_Canc>
2

> <Mouse_Female_Canc>
2

> <Rat_Male_NTP>
CE

> <Rat_Female_NTP>
CE

> <Mouse_Male_NTP>
EE

> <Mouse_Female_NTP>
EE

> <Status>
Carcinogen

> <New_Data>
true

> <iscarc>
1

$$$$
C.I. pigment red 23
  SciTegic06161615512D

 36 39  0  0  0  0            999 V2000
    0.0000   -2.6621    0.0000 C   0  0
    1.1409   -2.0029    0.0000 C   0  0
    2.2945   -2.6621    0.0000 C   0  0
    2.2945   -3.9931    0.0000 C   0  0
    1.1409   -4.6650    0.0000 C   0  0
    0.0000   -3.9931    0.0000 C   0  0
    3.4481   -4.6650    0.0000 N   0  0
    3.4481   -5.9961    0.0000 N   0  0
    4.6016   -6.6552    0.0000 C   0  0
    1.1409   -0.6719    0.0000 N   0  3
    1.1409   -5.9961    0.0000 O   0  0
    0.0000   -6.6552    0.0000 C   0  0
    6.9088   -7.9863    0.0000 C   0  0
    6.9088   -6.6552    0.0000 C   0  0
    5.7552   -5.9961    0.0000 C   0  0
    5.7552   -8.6582    0.0000 C   0  0
    4.6016   -7.9863    0.0000 C   0  0
    3.4481   -8.6582    0.0000 C   0  0
    3.4481   -9.9892    0.0000 C   0  0
    4.6016  -10.6484    0.0000 C   0  0
    5.7552   -9.9892    0.0000 C   0  0
    5.7552   -4.6650    0.0000 O   0  0
    8.0624   -5.9961    0.0000 C   0  0
    9.2159   -6.6552    0.0000 N   0  0
    8.0624   -4.6650    0.0000 O   0  0
   10.3695   -5.9961    0.0000 C   0  0
   10.3695   -4.6650    0.0000 C   0  0
   11.5231   -3.9931    0.0000 C   0  0
   12.6767   -4.6650    0.0000 C   0  0
   12.6767   -5.9961    0.0000 C   0  0
   11.5231   -6.6552    0.0000 C   0  0
   13.8302   -6.6552    0.0000 N   0  3
    2.2945    0.0000    0.0000 O   0  5
    0.0000    0.0000    0.0000 O   0  0
   13.8302   -7.9863    0.0000 O   0  5
   14.9838   -5.9961    0.0000 O   0  0
  1  2  2  0
  1  6  1  0
  2  3  1  0
  2 10  1  0
  3  4  2  0
  4  5  1  0
  4  7  1  0
  5  6  2  0
  5 11  1  0
  7  8  2  0
  8  9  1  0
  9 17  2  0
  9 15  1  0
 10 33  1  0
 10 34  2  0
 11 12  1  0
 13 16  2  0
 13 14  1  0
 14 15  2  0
 14 23  1  0
 15 22  1  0
 16 17  1  0
 16 21  1  0
 17 18  1  0
 18 19  2  0
 19 20  1  0
 20 21  2  0
 23 24  1  0
 23 25  2  0
 24 26  1  0
 26 27  2  0
 26 31  1  0
 27 28  1  0
 28 29  2  0
 29 30  1  0
 30 31  2  0
 30 32  1  0
 32 35  1  0
 32 36  2  0
M  CHG  4  10   1  32   1  33  -1  35  -1
M  END
> <Name>
C.I. pigment red 23

> <Substance ID>
316

> <Synonyms>
1-(2-Methoxy-5-nitrophenylazo)-2-hydroxy-3-(3-nitrophenylcarbamoyl)naphthalene; 3-Hydroxy-4-[(2-methoxy-5-nitrophenyl)azo]-3'-nitro-2-naphthanilide; 3-hydroxy-4-((2-methoxy-5-nitrophenyl)azo)-N-(3-nit
rophenyl)-2-naphthalene carboxamide; alkali resistant red dark; Blue Shade Naphthol Red; calcotone 3b; carnation red toner b; C.I. 12355; C.I. Pigment Red 184 type; C.I. Pigment Red 245; conso red r-1
38; Fast Rose; fenalac red fkb extra; malta red x 2284; naphthol red b; naphthol red deep 10459; pigment red 23.

> <CAS>
6471-49-4

> <Reference>
NTP411

> <MolWeight>
487.43

> <Formula>
C24H17N5O7

> <SMILES>
[O-][N+](=O)C1=CC=CC(=C1)NC(=O)C2=CC3=CC=CC=C3C(=C2O)/N=N/C4=CC(=CC=C4OC)[N+]([O-])=O

> <TD50_Rat>
NP

> <TD50_Mouse>
NP

> <Canc>
2

> <SAL>
3

> <Rat_Male_Canc>
2

> <Rat_Female_Canc>
1

> <Mouse_Male_Canc>
1

> <Mouse_Female_Canc>
1

> <Rat_Male_NTP>
EE

> <Rat_Female_NTP>
NE

> <Mouse_Male_NTP>
NE

> <Mouse_Female_NTP>
NE

> <Status>
Non-Carcinogen

> <CanonicalTautomer>
Yes

> <NumberOfTautomers>
5

> <New_Data>
true

> <iscarc>
0

$$$$
2,4-Diaminophenol Dihydrochloride
  SciTegic06161615513D

  9  9  0  0  0  0            999 V2000
    0.0038   -2.0177    0.0000 C   0  0
    0.0000   -3.2859    0.0003 C   0  0
    2.3057   -3.3559    0.0003 C   0  0
    2.3099   -1.9617    0.0007 C   0  0
    1.2056   -3.9866    0.0004 C   0  0
    1.2135   -1.3243    0.0005 C   0  0
    1.2176    0.0000    0.0004 O   0  0
    1.2017   -5.3154    0.0002 N   0  0
    3.4632   -1.3006    0.0010 N   0  0
  1  2  2  0
  1  6  1  0
  2  5  1  0
  3  4  1  0
  3  5  2  0
  4  6  2  0
  4  9  1  0
  5  8  1  0
  6  7  1  0
M  END
> <Name>
2,4-Diaminophenol Dihydrochloride

> <Substance ID>
317

> <Synonyms>
2,4-diaminophenol hydrochloride; ACROL; Amidol.

> <CAS>
137-09-7

> <Reference>
NTP401

> <MolWeight>
124.14

> <Formula>
C6H8N2O

> <SMILES>
C1(C(=CC=C(C=1)N)O)N

> <TD50_Rat>
NP

> <TD50_Mouse>
143

> <Canc>
3

> <SAL>
3

> <Rat_Male_Canc>
1

> <Rat_Female_Canc>
1

> <Mouse_Male_Canc>
3

> <Mouse_Female_Canc>
1

> <Rat_Male_NTP>
NE

> <Rat_Female_NTP>
NE

> <Mouse_Male_NTP>
SE

> <Mouse_Female_NTP>
NE

> <Status>
Carcinogen

> <New_Data>
true

> <iscarc>
1

$$$$
4-Nitroaniline
  SciTegic06161615512D

 10 10  0  0  0  0            999 V2000
    2.3035   -1.9997    0.0000 C   0  0
    2.3035   -3.3286    0.0000 C   0  0
    0.0000   -3.3286    0.0000 C   0  0
    0.0000   -1.9997    0.0000 C   0  0
    1.1517   -3.9868    0.0000 C   0  0
    1.1517   -1.3289    0.0000 C   0  0
    1.1517    0.0000    0.0000 N   0  0
    1.1517   -5.3157    0.0000 N   0  3
    0.0000   -5.9865    0.0000 O   0  5
    2.3035   -5.9865    0.0000 O   0  0
  1  2  2  0
  1  6  1  0
  2  5  1  0
  3  4  1  0
  3  5  2  0
  4  6  2  0
  5  8  1  0
  6  7  1  0
  8  9  1  0
  8 10  2  0
M  CHG  2   8   1   9  -1
M  END
> <Name>
4-Nitroaniline

> <Substance ID>
319

> <Synonyms>
1-amino-4-nitrobenzene; p-aminonitrobenzene; nitrazol cf extra; PNA; red 2g base; shinnippon fast red gg base; 4-Nitroanilene; 4-nitrobenzenamine; p-nitrophenylamine; azoamine red 2H; azofix red gg sa
lt; azoic diazo component 37; diazo fast red gg; C.I. 37035; C.I. azoic diazo component 37; C.I. developer 17; developer P; devol red gg; fast red 2g salt; fast red 2g base; fast red salt 2j; fast red
 p salt; fast red p base; fast red base 2j; fast red base gg; fast red salt gg; fast red gg base; fast red mp base; naphtoelan red gg base.

> <CAS>
100-01-6

> <Reference>
NTP418 & CPDB

> <MolWeight>
138.13

> <Formula>
C6H6N2O2

> <SMILES>
O=[N+](C1=CC=C(C=C1)N)[O-]

> <TD50_Rat>
NP

> <TD50_Mouse>
NP

> <Canc>
2

> <SAL>
3

> <Rat_Male_Canc>
1

> <Rat_Female_Canc>
1

> <Mouse_Male_Canc>
2

> <Mouse_Female_Canc>
1

> <Rat_Male_NTP>
ND

> <Rat_Female_NTP>
ND

> <Mouse_Male_NTP>
EE

> <Mouse_Female_NTP>
NE

> <Status>
Carcinogen

> <New_Data>
true

> <iscarc>
1

$$$$
ortho-NITROANISOLE
  SciTegic06161615512D

 11 11  0  0  0  0            999 V2000
    0.6589   -2.3060    0.0000 C   0  0
    0.0000   -1.1530    0.0000 C   0  0
    1.9892    0.0000    0.0000 C   0  0
    2.6481   -1.1530    0.0000 C   0  0
    0.6589    0.0000    0.0000 C   0  0
    1.9892   -2.3060    0.0000 C   0  0
    2.6481   -3.4590    0.0000 O   0  0
    3.9785   -3.4590    0.0000 C   0  0
    3.9785   -1.1530    0.0000 N   0  3
    4.6500   -2.3060    0.0000 O   0  5
    4.6500    0.0000    0.0000 O   0  0
  1  2  2  0
  1  6  1  0
  2  5  1  0
  3  4  1  0
  3  5  2  0
  4  6  2  0
  4  9  1  0
  6  7  1  0
  7  8  1  0
  9 10  1  0
  9 11  2  0
M  CHG  2   9   1  10  -1
M  END
> <Name>
ortho-NITROANISOLE

> <Substance ID>
320

> <Synonyms>
1-methoxy-2-nitrobenzene; 2-methoxynitrobenzene; 2-Nitroanisole; o-nitrophenyl methyl ether.

> <CAS>
91-23-6

> <Reference>
NTP416

> <MolWeight>
153.14

> <Formula>
C7H7NO3

> <SMILES>
COC1=C(C=CC=C1)[N+](=O)[O-]

> <TD50_Rat>
15.6

> <TD50_Mouse>
178

> <Canc>
3

> <SAL>
3

> <Rat_Male_Canc>
3

> <Rat_Female_Canc>
3

> <Mouse_Male_Canc>
3

> <Mouse_Female_Canc>
3

> <Rat_Male_NTP>
CE

> <Rat_Female_NTP>
CE

> <Mouse_Male_NTP>
CE

> <Mouse_Female_NTP>
SE

> <Status>
Carcinogen

> <New_Data>
true

> <iscarc>
1

$$$$
Acetaminophen
  SciTegic06161615512D

 11 11  0  0  0  0            999 V2000
    1.9904   -1.1410    0.0000 C   0  0
    3.3216   -1.1410    0.0000 C   0  0
    3.3216   -3.4483    0.0000 C   0  0
    1.9904   -3.4483    0.0000 C   0  0
    3.9808   -2.2947    0.0000 C   0  0
    1.3312   -2.2947    0.0000 C   0  0
    0.0000   -2.2947    0.0000 O   0  0
    5.3120   -2.2947    0.0000 N   0  0
    5.9839   -1.1410    0.0000 C   0  0
    5.3120    0.0000    0.0000 O   0  0
    7.3150   -1.1410    0.0000 C   0  0
  1  2  2  0
  1  6  1  0
  2  5  1  0
  3  4  1  0
  3  5  2  0
  4  6  2  0
  5  8  1  0
  6  7  1  0
  8  9  1  0
  9 10  2  0
  9 11  1  0
M  END
> <Name>
Acetaminophen

> <Substance ID>
324

> <Synonyms>
4-Acetamidophenol; p-Acetaminophenol; Apap; Arthralgen; Bancap; Ben-u-ron; Dial-a-gesic; Bickie-mol; Dirox; Disprol; Calpol; Calpol infant; Capital; Cetadol; clixodyne; Dafalgan; Darvocet-n; datril; D
oliprane; Dolprone; Dristan; Dularin; Dymadon; Elixodyne; Enelfa; Eneril; Exdol; Febrilix; febro-gesic; febrolin; fendon; Finimal; G 1; Gelocatil; Hedex; Homoolan; janupap; Korum; lestemp; Liqiprine;
liquagesic; Liquiprin; lonarid; Lyteca; lyteca syrup; Momentum; multin; N-(4-Hydroxyphenyl)acetamide; N-Acetyl-4-aminophenol; NAPA; napafen; Napap; Naprinol; Nobedon; Pacemo; Paldesic; Panadol; Panale
ve; Panets; Panex; Panofen; Parmol; pedric; Percogesic; Phenaphen; phendon; Proxyphene/Acetamine; pyrinazine; Salzone; Sinutab; sk-apap; Tabalgin; Tapar; Temlo; tempanal; Tempra; Tralgon; tussapap; Ty
lenol; Valadol; Valgesic; p-Acetylaminophenol; paracetamol; p-Hydroxyacetanilide; 4'-Hydroxyacetanilide; Parapan; Paraspen; Abensanil; Acamol; Acetagesic; Acetalgin; Acetaminofen; algotropyl; Alpiny;
alpinyl; alvedon; Amadil; Anacin-3; Anaflon; anelix; Anhiba; Anuphen; apadon; Apamide.

> <CAS>
103-90-2

> <Reference>
NTP394

> <MolWeight>
151.16

> <Formula>
C8H9NO2

> <SMILES>
C1(=CC=C(C=C1)O)NC(C)=O

> <TD50_Rat>
NP

> <TD50_Mouse>
NP

> <Canc>
2

> <SAL>
1

> <Rat_Male_Canc>
1

> <Rat_Female_Canc>
2

> <Mouse_Male_Canc>
1

> <Mouse_Female_Canc>
1

> <Rat_Male_NTP>
NE

> <Rat_Female_NTP>
EE

> <Mouse_Male_NTP>
NE

> <Mouse_Female_NTP>
NE

> <Status>
Non-Carcinogen

> <CanonicalTautomer>
Yes

> <NumberOfTautomers>
2

> <New_Data>
true

> <iscarc>
0

$$$$
Chlorinated paraffins (C23, 43% Chlorine)
  SciTegic06161615512D

  0  0  0  0  0  0            999 V2000
M  END
> <Name>
Chlorinated paraffins (C23, 43% Chlorine)

> <Substance ID>
419

> <Synonyms>
Paraffin waxes and hydrocarbon waxes, chlorinated (C23, 43% chlorine); alkanes, C22-26, chloro; chloro C22-26 alkanes.

> <CAS>
108171-27-3

> <Reference>
NTP305

> <MolWeight>
Unspecified

> <SMILES>
Unspecified

> <TD50_Rat>
ND

> <TD50_Mouse>
6540

> <Canc>
3

> <SAL>
1

> <Rat_Male_Canc>
1

> <Rat_Female_Canc>
2

> <Mouse_Male_Canc>
3

> <Mouse_Female_Canc>
2

> <Rat_Male_NTP>
NE

> <Rat_Female_NTP>
EE

> <Mouse_Male_NTP>
CE

> <Mouse_Female_NTP>
EE

> <Status>
Carcinogen

> <New_Data>
true

> <iscarc>
1

$$$$
Phenylphenol
  SciTegic06161615512D

 13 14  0  0  0  0            999 V2000
    0.0000   -1.1531    0.0000 C   0  0
    0.6716    0.0000    0.0000 C   0  0
    2.6611   -1.1531    0.0000 C   0  0
    2.0021   -2.3062    0.0000 C   0  0
    2.0021    0.0000    0.0000 C   0  0
    0.6716   -2.3062    0.0000 C   0  0
    2.6611   -3.4467    0.0000 O   0  0
    3.9916   -1.1531    0.0000 C   0  0
    4.6632    0.0000    0.0000 C   0  0
    6.6526   -1.1531    0.0000 C   0  0
    5.9937   -2.3062    0.0000 C   0  0
    5.9937    0.0000    0.0000 C   0  0
    4.6632   -2.3062    0.0000 C   0  0
  1  2  2  0
  1  6  1  0
  2  5  1  0
  3  4  1  0
  3  5  2  0
  3  8  1  0
  4  6  2  0
  4  7  1  0
  8  9  2  0
  8 13  1  0
  9 12  1  0
 10 11  1  0
 10 12  2  0
 11 13  2  0
M  END
> <Name>
Phenylphenol

> <Substance ID>
495

> <Synonyms>
(1,1-Biphenyl)-2-ol; 1,1'-Biphenyl-2-ol; 2-Biphenylol; orthohydroxydipbenyl; 2-Hydroxybiphenyl; 2-Phenylphenol; Orthoxenol; o-Xonal; biphenyl-2-ol; Biphenylol; Dowicide 1; Hydroxdiphenyl; Hydroxy-2-ph
enylbenzene; Hydroxybiphenyl; OPP; Preventol O extra; Remol TRF; Torsite; Tumescal OPE; Xenol.

> <CAS>
90-43-7

> <Reference>
CPDB & NTP301

> <MolWeight>
170.21

> <Formula>
C12H10O

> <SMILES>
OC1=C(C=CC=C1)C2=CC=CC=C2

> <TD50_Rat>
232

> <TD50_Mouse>
NP

> <Canc>
3

> <SAL>
3

> <Rat_Male_Canc>
3

> <Rat_Female_Canc>
ND

> <Mouse_Male_Canc>
1

> <Mouse_Female_Canc>
1

> <Rat_Male_NTP>
ND

> <Rat_Female_NTP>
ND

> <Mouse_Male_NTP>
NE

> <Mouse_Female_NTP>
NE

> <Status>
Non-Carcinogen

> <New_Data>
true

> <iscarc>
0

$$$$
Isobutyraldehyde
  SciTegic06161615512D

  5  4  0  0  0  0            999 V2000
    0.6672   -1.1513    0.0000 C   0  0
    0.0000    0.0000    0.0000 C   0  0
    0.0000   -2.3026    0.0000 C   0  0
    2.0017   -1.1513    0.0000 C   0  0
    2.6559   -2.3026    0.0000 O   0  0
  1  2  1  0
  1  3  1  0
  1  4  1  0
  4  5  2  0
M  END
> <Name>
Isobutyraldehyde

> <Substance ID>
585

> <Synonyms>
2-methyl-1-propanal; 2-Methylpropanal; 2-Methylpropionaldehyde; alpha-methylpropionaldehyde; Butyric iso aldehyde; Isobutaldehyde; Isobutanal; isobutyric aldehyde; isobutyryl aldehyde; isobutyl aldehy
de; isopropyl aldehyde; isopropyl formaldehyde; Methyl Propanal.

> <CAS>
78-84-2

> <Reference>
NTP472

> <MolWeight>
72.11

> <Formula>
C4H8O

> <SMILES>
O=CC(C)C

> <TD50_Rat>
NP

> <TD50_Mouse>
NP

> <Canc>
1

> <SAL>
2

> <Rat_Male_Canc>
1

> <Rat_Female_Canc>
1

> <Mouse_Male_Canc>
1

> <Mouse_Female_Canc>
1

> <Rat_Male_NTP>
NE

> <Rat_Female_NTP>
NE

> <Mouse_Male_NTP>
NE

> <Mouse_Female_NTP>
NE

> <Status>
Non-Carcinogen

> <New_Data>
true

> <iscarc>
0

$$$$
Ethylbenzene
  SciTegic06161615512D

  8  8  0  0  0  0            999 V2000
    3.3292   -1.1519    0.0000 C   0  0
    3.9874   -2.3038    0.0000 C   0  0
    2.0000   -3.4558    0.0000 C   0  0
    1.3291   -2.3038    0.0000 C   0  0
    3.3292   -3.4558    0.0000 C   0  0
    2.0000   -1.1519    0.0000 C   0  0
    1.3291    0.0000    0.0000 C   0  0
    0.0000    0.0000    0.0000 C   0  0
  1  2  2  0
  1  6  1  0
  2  5  1  0
  3  4  1  0
  3  5  2  0
  4  6  2  0
  6  7  1  0
  7  8  1  0
M  END
> <Name>
Ethylbenzene

> <Substance ID>
586

> <Synonyms>
EB; Ethyl Benzene; ethylbenzol; Ethylenzene; phenylethane.

> <CAS>
100-41-4

> <Reference>
NTP466

> <MolWeight>
106.17

> <Formula>
C8H10

> <SMILES>
CCC1=CC=CC=C1

> <TD50_Rat>
4350

> <TD50_Mouse>
ND

> <Canc>
3

> <SAL>
1

> <Rat_Male_Canc>
3

> <Rat_Female_Canc>
3

> <Mouse_Male_Canc>
3

> <Mouse_Female_Canc>
3

> <Rat_Male_NTP>
CE

> <Rat_Female_NTP>
SE

> <Mouse_Male_NTP>
SE

> <Mouse_Female_NTP>
SE

> <Status>
Carcinogen

> <New_Data>
true

> <iscarc>
1

$$$$
Citral
  SciTegic06161615512D

 11 10  0  0  0  0            999 V2000
    8.0744   -0.6602    0.0000 C   0  0
    6.9191    0.0000    0.0000 C   0  0
    5.7638   -0.6602    0.0000 C   0  0
    4.6085    0.0000    0.0000 C   0  0
    3.4532   -0.6602    0.0000 C   0  0
    2.2979    0.0000    0.0000 C   0  0
    1.1426   -0.6602    0.0000 C   0  0
    0.0000    0.0000    0.0000 C   0  0
    1.1426   -1.9932    0.0000 C   0  0
    9.2297    0.0000    0.0000 O   0  0
    5.7638   -1.9932    0.0000 C   0  0
  1  2  1  0
  1 10  2  0
  2  3  2  0
  3  4  1  0
  3 11  1  0
  4  5  1  0
  5  6  1  0
  6  7  2  0
  7  8  1  0
  7  9  1  0
M  END
> <Name>
Citral

> <Substance ID>
588

> <Synonyms>
3,7-Dimethyl-2,6-octadienal; cis-3,7-Dimethyl-2,6-octadienal; cis-Citral; cis/trans-3,7-Dimethyl-2,6-octadienal; Citral A; citral-b; Citral, mixture of cis and trans; CITRAL NATURAL; CITRAL SINTETICO;
 geranal; Geranial; geranialdehyde; Lemarome n; Neral; trans-3,7-Dimethyl-2,6-octadienal.

> <CAS>
5392-40-5

> <Reference>
NTP505

> <MolWeight>
152.24

> <Formula>
C10H16O

> <SMILES>
O=C/C=C(/CC/C=C(/C)C)C

> <TD50_Rat>
NP

> <TD50_Mouse>
NP

> <Canc>
2

> <SAL>
1

> <Rat_Male_Canc>
1

> <Rat_Female_Canc>
1

> <Mouse_Male_Canc>
1

> <Mouse_Female_Canc>
2

> <Rat_Male_NTP>
NE

> <Rat_Female_NTP>
NE

> <Mouse_Male_NTP>
NE

> <Mouse_Female_NTP>
EE

> <Status>
Non-Carcinogen

> <New_Data>
true

> <iscarc>
0

$$$$
9,10-Anthraquinone
  SciTegic06161615512D

 16 18  0  0  0  0            999 V2000
    0.0000   -1.1522    0.0000 C   0  0
    0.6711    0.0000    0.0000 C   0  0
    2.0006    0.0000    0.0000 C   0  0
    0.6711   -2.3045    0.0000 C   0  0
    2.0006   -2.3045    0.0000 C   0  0
    2.6590   -1.1522    0.0000 C   0  0
    3.9885   -1.1522    0.0000 C   0  0
    2.6590   -3.4567    0.0000 C   0  0
    3.9885   -3.4567    0.0000 C   0  0
    4.6596   -2.3045    0.0000 C   0  0
    6.6475   -3.4567    0.0000 C   0  0
    5.9891   -4.6089    0.0000 C   0  0
    5.9891   -2.3045    0.0000 C   0  0
    4.6596   -4.6089    0.0000 C   0  0
    2.0006   -4.6089    0.0000 O   0  0
    4.6596    0.0000    0.0000 O   0  0
  1  2  2  0
  1  4  1  0
  2  3  1  0
  3  6  2  0
  4  5  2  0
  5  6  1  0
  5  8  1  0
  6  7  1  0
  7 10  1  0
  7 16  2  0
  8  9  1  0
  8 15  2  0
  9 10  2  0
  9 14  1  0
 10 13  1  0
 11 12  1  0
 11 13  2  0
 12 14  2  0
M  END
> <Name>
9,10-Anthraquinone

> <Substance ID>
589

> <Synonyms>
9,10-Anthracenedione; 9,10-dihydro-9,10-dioxoanthracene; 9,10-Dioxoanthracene; anthradione; Anthracenedione; Anthracenequinone; Anthrapel; Anthraquinone; corbit; hoelite; morkit.

> <CAS>
84-65-1

> <Reference>
NTP494

> <MolWeight>
208.22

> <Formula>
C14H8O2

> <SMILES>
O=C1C2=C(C=CC=C2)C(=O)C3=C1C=CC=C3

> <TD50_Rat>
ND

> <TD50_Mouse>
ND

> <Canc>
3

> <SAL>
3

> <Rat_Male_Canc>
3

> <Rat_Female_Canc>
3

> <Mouse_Male_Canc>
3

> <Mouse_Female_Canc>
3

> <Rat_Male_NTP>
SE

> <Rat_Female_NTP>
CE

> <Mouse_Male_NTP>
CE

> <Mouse_Female_NTP>
CE

> <Status>
Carcinogen

> <New_Data>
true

> <iscarc>
1

$$$$
trans-Cinnamaldehyde
  SciTegic06161615512D

 10 10  0  0  0  0            999 V2000
    0.0000   -2.3084    0.0000 C   0  0
    0.6722   -1.1542    0.0000 C   0  0
    2.6635   -2.3084    0.0000 C   0  0
    2.0040   -3.4499    0.0000 C   0  0
    2.0040   -1.1542    0.0000 C   0  0
    0.6722   -3.4499    0.0000 C   0  0
    3.9952   -2.3084    0.0000 C   0  0
    4.6674   -1.1542    0.0000 C   0  0
    5.9992   -1.1542    0.0000 C   0  0
    6.6587    0.0000    0.0000 O   0  0
  1  2  2  0
  1  6  1  0
  2  5  1  0
  3  4  1  0
  3  5  2  0
  3  7  1  0
  4  6  2  0
  7  8  2  0
  8  9  1  0
  9 10  2  0
M  END
> <Name>
trans-Cinnamaldehyde

> <Substance ID>
590

> <Synonyms>
2-propenal,3-phenyl-,(E)-; (E)-3-phenylprop-2-enal; (E)-3-phenylpropenal; (E)-cinnamaldehyde; trans-3-phenyl-2-propenal; trans-Cinnamic Aldehyde; trans-cinnamylaldehyde.

> <CAS>
14371-10-9

> <Reference>
NTP514

> <MolWeight>
132.16

> <Formula>
C9H8O

> <SMILES>
O=CC=Cc(cccc1)c1

> <TD50_Rat>
NP

> <TD50_Mouse>
NP

> <Canc>
1

> <SAL>
1

> <Rat_Male_Canc>
1

> <Rat_Female_Canc>
1

> <Mouse_Male_Canc>
1

> <Mouse_Female_Canc>
1

> <Rat_Male_NTP>
NE

> <Rat_Female_NTP>
NE

> <Mouse_Male_NTP>
NE

> <Mouse_Female_NTP>
NE

> <Status>
Non-Carcinogen

> <New_Data>
true

> <iscarc>
0

$$$$
Primaclone
  SciTegic06161615512D

 16 17  0  0  0  0            999 V2000
    1.9879   -4.9569    0.0000 N   0  0
    0.6626   -4.9569    0.0000 C   0  0
    0.0000   -3.8101    0.0000 N   0  0
    0.6626   -2.6632    0.0000 C   0  0
    1.9879   -2.6632    0.0000 C   0  0
    2.6632   -3.8101    0.0000 C   0  0
    3.1475   -1.9879    0.0000 C   0  0
    1.9879   -1.3252    0.0000 C   0  0
    3.1475   -0.6626    0.0000 C   0  0
    4.2943    0.0000    0.0000 C   0  0
    5.4539   -0.6626    0.0000 C   0  0
    5.4539   -1.9879    0.0000 C   0  0
    4.2943   -2.6632    0.0000 C   0  0
    0.8410   -0.6626    0.0000 C   0  0
    3.9885   -3.8101    0.0000 O   0  0
    0.0000   -1.5036    0.0000 O   0  0
  1  2  1  0
  1  6  1  0
  2  3  1  0
  3  4  1  0
  4  5  1  0
  4 16  2  0
  5  6  1  0
  5  7  1  0
  5  8  1  0
  6 15  2  0
  7  9  2  0
  7 13  1  0
  8 14  1  0
  9 10  1  0
 10 11  2  0
 11 12  1  0
 12 13  2  0
M  END
> <Name>
Primaclone

> <Substance ID>
591

> <Synonyms>
2-deoxyphenobarbital; 5-ethyldihydro-5-phenyl-4,6(1H,5H)-pyrimidinedione; primacione; primacone; primakton; Primidone; primoline; prysoline; pyrimidone medi-pets; resimatil; roe 101; sertan; 5-ethylhe
xahydro-4,6-dioxo-5-phenylpyrimidine; 5-ethylhexahydro-5-phenylpyrimidine-4,6-dione; 5-Phenyl-5-ethyl-Hexahydropyrimidine-4,6-Dione; Cyral; desoxyphenobarbitone; hexadiona; hexamidine; hexamidine (the
 antispasmodic); lepimidin; lepsiral; liskantin; majsolin; midone; milepsin; misodine; misolyne; mizodin; mizolin; Myidone; mylepsin; mylepsinum; mysedon; Mysoline; prilepsin.

> <CAS>
125-33-7

> <Reference>
NTP476

> <MolWeight>
218.26

> <Formula>
C12H14N2O2

> <SMILES>
CCC1(C(=O)NCNC1(=O))c2ccccc2

> <TD50_Rat>
NP

> <TD50_Mouse>
ND

> <Canc>
3

> <SAL>
3

> <Rat_Male_Canc>
2

> <Rat_Female_Canc>
1

> <Mouse_Male_Canc>
3

> <Mouse_Female_Canc>
3

> <Rat_Male_NTP>
EE

> <Rat_Female_NTP>
NE

> <Mouse_Male_NTP>
CE

> <Mouse_Female_NTP>
CE

> <Status>
Carcinogen

> <New_Data>
true

> <iscarc>
1

$$$$
Methyleugenol
  SciTegic06161615512D

 13 13  0  0  0  0            999 V2000
    3.4468   -4.6507    0.0000 C   0  0
    2.2936   -3.9917    0.0000 C   0  0
    4.6000   -3.9917    0.0000 C   0  0
    3.4468   -5.9812    0.0000 O   0  0
    2.2936   -2.6611    0.0000 C   0  0
    1.1532   -4.6507    0.0000 O   0  0
    4.6000   -2.6611    0.0000 C   0  0
    4.6000   -6.6528    0.0000 C   0  0
    3.4468   -1.9895    0.0000 C   0  0
    0.0000   -3.9917    0.0000 C   0  0
    5.7531   -1.9895    0.0000 C   0  0
    5.7531   -0.6589    0.0000 C   0  0
    6.9063    0.0000    0.0000 C   0  0
  1  2  2  0
  1  3  1  0
  1  4  1  0
  2  5  1  0
  2  6  1  0
  3  7  2  0
  4  8  1  0
  5  9  2  0
  6 10  1  0
  7 11  1  0
  7  9  1  0
 11 12  1  0
 12 13  2  0
M  END
> <Name>
Methyleugenol

> <Substance ID>
592

> <Synonyms>
1,2-Dimethoxy-4-(2-propenyl)benzene; 1,2-dimethoxy-4-allylbenzene; 1-(3,4-dimethoxyphenyl)-2-propene; 1,3,4-eugenol methyl ether; 1-allyl-3,4-dimethoxybenzene; 2-Methoxy-4-propenylphenol methyl ether;
 o-methyl eugenol ether; 3,4-Dimethoxyallyl benzene; 4-Allyl-1,2-dimethoxybenzene; 4-allylveratrole; Allyl veratrole; Dimethoxy-4-(2-propenyl)benzene; eugenol methyl ether; eugenyl methyl ether; Methy
l eugenyl ether; veratrole methyl ether.

> <CAS>
93-15-2

> <Reference>
NTP491

> <MolWeight>
178.23

> <Formula>
C11H14O2

> <SMILES>
O(c(c(OC)cc(c1)CC=C)c1)C

> <TD50_Rat>
ND

> <TD50_Mouse>
ND

> <Canc>
3

> <SAL>
1

> <Rat_Male_Canc>
3

> <Rat_Female_Canc>
3

> <Mouse_Male_Canc>
3

> <Mouse_Female_Canc>
3

> <Rat_Male_NTP>
CE

> <Rat_Female_NTP>
CE

> <Mouse_Male_NTP>
CE

> <Mouse_Female_NTP>
CE

> <Status>
Carcinogen

> <New_Data>
true

> <iscarc>
1

$$$$
Furfuryl alcohol
  SciTegic06161615512D

  7  7  0  0  0  0            999 V2000
    1.9646   -0.2788    0.0000 O   0  0
    2.1040   -1.5970    0.0000 C   0  0
    0.8872   -2.1420    0.0000 C   0  0
    0.0000   -1.1534    0.0000 C   0  0
    0.6718    0.0000    0.0000 C   0  0
    3.2574   -2.2688    0.0000 C   0  0
    3.2574   -3.5996    0.0000 O   0  0
  1  2  1  0
  1  5  1  0
  2  3  2  0
  2  6  1  0
  3  4  1  0
  4  5  2  0
  6  7  1  0
M  END
> <Name>
Furfuryl alcohol

> <Substance ID>
593

> <Synonyms>
2-furancarbinol; 2-furanmethanol; 2-Furylcarbinol; 2-Furylmethanol; 2-hydroxymethylfuran; alpha-furylcarbinol; FA; furfuralcohol.

> <CAS>
98-00-0

> <Reference>
NTP482

> <MolWeight>
98.1

> <Formula>
C5H6O2

> <SMILES>
c1c(CO)occ1

> <TD50_Rat>
ND

> <TD50_Mouse>
ND

> <Canc>
3

> <SAL>
1

> <Rat_Male_Canc>
3

> <Rat_Female_Canc>
2

> <Mouse_Male_Canc>
3

> <Mouse_Female_Canc>
1

> <Rat_Male_NTP>
SE

> <Rat_Female_NTP>
EE

> <Mouse_Male_NTP>
SE

> <Mouse_Female_NTP>
NE

> <Status>
Carcinogen

> <New_Data>
true

> <iscarc>
1

$$$$
Emodin
  SciTegic06161615512D

 20 22  0  0  0  0            999 V2000
    0.0000   -2.3037    0.0000 C   0  0
    0.6709   -1.1519    0.0000 C   0  0
    1.9999   -1.1519    0.0000 C   0  0
    0.6709   -3.4556    0.0000 C   0  0
    1.9999   -3.4556    0.0000 C   0  0
    2.6581   -2.3037    0.0000 C   0  0
    3.9872   -2.3037    0.0000 C   0  0
    2.6581   -4.6074    0.0000 C   0  0
    3.9872   -4.6074    0.0000 C   0  0
    4.6580   -3.4556    0.0000 C   0  0
    6.6453   -4.6074    0.0000 C   0  0
    5.9871   -5.7593    0.0000 C   0  0
    5.9871   -3.4556    0.0000 C   0  0
    4.6580   -5.7593    0.0000 C   0  0
    0.0000    0.0000    0.0000 C   0  0
    0.0000   -4.6074    0.0000 O   0  0
    3.9872   -6.9111    0.0000 O   0  0
    7.9743   -4.6074    0.0000 O   0  0
    1.9999   -5.7593    0.0000 O   0  0
    4.6580   -1.1519    0.0000 O   0  0
  1  2  2  0
  1  4  1  0
  2  3  1  0
  2 15  1  0
  3  6  2  0
  4  5  2  0
  4 16  1  0
  5  6  1  0
  5  8  1  0
  6  7  1  0
  7 10  1  0
  7 20  2  0
  8  9  1  0
  8 19  2  0
  9 10  2  0
  9 14  1  0
 10 13  1  0
 11 12  1  0
 11 13  2  0
 11 18  1  0
 12 14  2  0
 14 17  1  0
M  END
> <Name>
Emodin

> <Substance ID>
595

> <Synonyms>
1,3,8-Trihydroxy-6-methylanthraquinone; 6-methyl-1,3,8-trihydroxyanthraquinone; 9,10-anthracenedione, 1,3,8-trihydroxy-6-methyl-; C.I. 75440; C.I. natural yellow 14; emodol; frangula emodin; persian b
erry lake; rheum emodium; schuttgelb.

> <CAS>
518-82-1

> <Reference>
NTP493

> <MolWeight>
270.24

> <Formula>
C15H10O5

> <SMILES>
Cc3cc(O)c2C(=O)c1c(O)cc(O)cc1C(=O)c2c3

> <TD50_Rat>
NP

> <TD50_Mouse>
NP

> <Canc>
2

> <SAL>
3

> <Rat_Male_Canc>
1

> <Rat_Female_Canc>
2

> <Mouse_Male_Canc>
2

> <Mouse_Female_Canc>
1

> <Rat_Male_NTP>
NE

> <Rat_Female_NTP>
EE

> <Mouse_Male_NTP>
EE

> <Mouse_Female_NTP>
NE

> <Status>
Carcinogen

> <CanonicalTautomer>
Yes

> <NumberOfTautomers>
4

> <New_Data>
true

> <iscarc>
1

$$$$
Ethylene glycol mono butyl ether
  SciTegic06161615512D

  8  7  0  0  0  0            999 V2000
    8.0833    0.0000    0.0000 C   0  0
    6.9286   -0.6599    0.0000 C   0  0
    5.7738    0.0000    0.0000 C   0  0
    4.6191   -0.6599    0.0000 C   0  0
    3.4643    0.0000    0.0000 O   0  0
    2.3095   -0.6599    0.0000 C   0  0
    1.1548    0.0000    0.0000 C   0  0
    0.0000   -0.6599    0.0000 O   0  0
  1  2  1  0
  2  3  1  0
  3  4  1  0
  4  5  1  0
  5  6  1  0
  6  7  1  0
  7  8  1  0
M  END
> <Name>
Ethylene glycol mono butyl ether

> <Substance ID>
596

> <Synonyms>
2-butoxy-1-ethanol; 2-Butoxy ethanol; monobutyl ether of ethylene glycol; monobutyl glycol ether; n-butoxyethanol; n-Butyl Cellosolve; poly-solv eb; 2-BUTOXY ETHANOL (ETHYLENE GLYCOL MONOBUTYL ETHER);
 o-butyl ethylene glycol; 2-n-Butoxy-1-ethanol; 2-n-Butoxyethanol; 3-oxa-1-heptanol; Beta-butoxyethanol; BUCS; butoxyethanol; Butyl cellosolve; butyl glycol; Butyl oxitol; Dowanol EB; Ektasolve EB; Ek
tasolve EB solvent; Ethylene glycol butyl ether; Ethylene glycol monobutyl ether (EGBE)(2-Butoxyet); Ethylene Glycol Mono-n-butyl Ether; Ethylene glycol n-butyl ether; gafcol eb; glycol butyl ether; g
lycol ether eb; glycol ether eb acetate; Jeffersol EB.

> <CAS>
111-76-2

> <Reference>
NTP484

> <MolWeight>
118.18

> <Formula>
C6H14O2

> <SMILES>
O(CCCC)CCO

> <TD50_Rat>
NP

> <TD50_Mouse>
ND

> <Canc>
3

> <SAL>
1

> <Rat_Male_Canc>
1

> <Rat_Female_Canc>
2

> <Mouse_Male_Canc>
3

> <Mouse_Female_Canc>
3

> <Rat_Male_NTP>
NE

> <Rat_Female_NTP>
EE

> <Mouse_Male_NTP>
SE

> <Mouse_Female_NTP>
SE

> <Status>
Carcinogen

> <New_Data>
true

> <iscarc>
1

$$$$
Isobutene
  SciTegic06161615512D

  4  3  0  0  0  0            999 V2000
    0.0000   -1.9974    0.0000 C   0  0
    1.1504   -1.3274    0.0000 C   0  0
    2.3008   -1.9974    0.0000 C   0  0
    1.1504    0.0000    0.0000 C   0  0
  1  2  1  0
  2  3  2  0
  2  4  1  0
M  END
> <Name>
Isobutene

> <Substance ID>
597

> <Synonyms>
1,1-dimethylethylene; 2-methyl-1-propene; 2-methylpropene; 2-methylpropylene; isobutylene; isobutylene, various grades; isopropylidenemethylene; Methylpropene; unsym. dimethylethylene; gamma-butylene.

> <CAS>
115-11-7

> <Reference>
NTP487

> <MolWeight>
56.11

> <Formula>
C4H8

> <SMILES>
C(=C)(C)C

> <TD50_Rat>
ND

> <TD50_Mouse>
NP

> <Canc>
3

> <SAL>
1

> <Rat_Male_Canc>
3

> <Rat_Female_Canc>
1

> <Mouse_Male_Canc>
1

> <Mouse_Female_Canc>
1

> <Rat_Male_NTP>
SE

> <Rat_Female_NTP>
NE

> <Mouse_Male_NTP>
NE

> <Mouse_Female_NTP>
NE

> <Status>
Non-Carcinogen

> <New_Data>
true

> <iscarc>
0

$$$$
1-Chloro-2-propanol
  SciTegic06161615512D

  5  4  0  0  0  0            999 V2000
    1.1475   -1.9950    0.0000 C   0  0
    2.3080   -1.3300    0.0000 C   0  0
    3.4554   -1.9950    0.0000 C   0  0
    2.3080    0.0000    0.0000 O   0  0
    0.0000   -1.3300    0.0000 Cl  0  0
  1  2  1  0
  1  5  1  0
  2  3  1  0
  2  4  1  0
M  END
> <Name>
1-Chloro-2-propanol

> <Substance ID>
598

> <Synonyms>
1-chloro-2-hydroxypropane; 1-Chloro-2-propanol, remainder 2-chloro-1-propanol; 1-chloroisopropyl alcohol; alpha-propylene chlorohydrin; propylene chlorohydrin; sec-propylene chlorohydrin.

> <CAS>
127-00-4

> <Reference>
NTP477

> <MolWeight>
94.54

> <Formula>
C3H7ClO

> <SMILES>
OC(CCl)C

> <TD50_Rat>
NP

> <TD50_Mouse>
NP

> <Canc>
1

> <SAL>
3

> <Rat_Male_Canc>
1

> <Rat_Female_Canc>
1

> <Mouse_Male_Canc>
1

> <Mouse_Female_Canc>
1

> <Rat_Male_NTP>
NE

> <Rat_Female_NTP>
NE

> <Mouse_Male_NTP>
NE

> <Mouse_Female_NTP>
NE

> <Status>
Non-Carcinogen

> <New_Data>
true

> <iscarc>
0

$$$$
Pyridine
  SciTegic06161615512D

  6  6  0  0  0  0            999 V2000
    1.1522   -2.6590    0.0000 C   0  0
    0.0000   -1.9879    0.0000 C   0  0
    1.1522    0.0000    0.0000 C   0  0
    2.3045   -0.6584    0.0000 C   0  0
    0.0000   -0.6584    0.0000 N   0  0
    2.3045   -1.9879    0.0000 C   0  0
  1  2  2  0
  1  6  1  0
  2  5  1  0
  3  4  1  0
  3  5  2  0
  4  6  2  0
M  END
> <Name>
Pyridine

> <Substance ID>
599

> <Synonyms>
Azabenzene; Azine; Pyr.

> <CAS>
110-86-1

> <Reference>
NTP470

> <MolWeight>
79.1

> <Formula>
C5H5N

> <SMILES>
n(cccc1)c1

> <TD50_Rat>
ND

> <TD50_Mouse>
ND

> <Canc>
3

> <SAL>
1

> <Rat_Male_Canc>
3

> <Rat_Female_Canc>
2

> <Mouse_Male_Canc>
2

> <Mouse_Female_Canc>
3

> <Rat_Male_NTP>
SE

> <Rat_Female_NTP>
EE

> <Mouse_Male_NTP>
EE

> <Mouse_Female_NTP>
CE

> <Status>
Carcinogen

> <New_Data>
true

> <iscarc>
1

$$$$
Diethanolamine
  SciTegic06161615512D

  7  6  0  0  0  0            999 V2000
    0.6652   -3.4618    0.0000 N   0  0
    0.0000   -2.3079    0.0000 C   0  0
    0.6652   -1.1539    0.0000 C   0  0
    0.0000    0.0000    0.0000 O   0  0
    0.0000   -4.6022    0.0000 C   0  0
    0.6652   -5.7562    0.0000 C   0  0
    0.0000   -6.9101    0.0000 O   0  0
  1  2  1  0
  1  5  1  0
  2  3  1  0
  3  4  1  0
  5  6  1  0
  6  7  1  0
M  END
> <Name>
Diethanolamine

> <Substance ID>
600

> <Synonyms>
2,2'-Dihydroxydiethylamine; 2,2'-Iminobisethanol; Bis(2-hydroxyethyl)amine; Diethylolamine; Bis(hydroxyethyl)amine; Diolamine; DEA; iminodiethanol; N,N-Diethanolamine.

> <CAS>
111-42-2

> <Reference>
NTP478

> <MolWeight>
105.14

> <Formula>
C4H11NO2

> <SMILES>
OCCNCCO

> <TD50_Rat>
NP

> <TD50_Mouse>
ND

> <Canc>
3

> <SAL>
1

> <Rat_Male_Canc>
1

> <Rat_Female_Canc>
1

> <Mouse_Male_Canc>
3

> <Mouse_Female_Canc>
3

> <Rat_Male_NTP>
NE

> <Rat_Female_NTP>
NE

> <Mouse_Male_NTP>
CE

> <Mouse_Female_NTP>
CE

> <Status>
Carcinogen

> <New_Data>
true

> <iscarc>
1

$$$$
Chloroprene
  SciTegic06161615512D

  5  4  0  0  0  0            999 V2000
    3.4627   -1.3318    0.0000 C   0  0
    2.3085   -1.9914    0.0000 C   0  0
    1.1542   -1.3318    0.0000 C   0  0
    0.0000   -1.9914    0.0000 C   0  0
    1.1542    0.0000    0.0000 Cl  0  0
  1  2  2  0
  2  3  1  0
  3  4  2  0
  3  5  1  0
M  END
> <Name>
Chloroprene

> <Substance ID>
601

> <Synonyms>
2-Chloro-1,3-butadiene; 2-chlorobuta-1,3-diene; 2-chlorobutadiene; 2-Chloroprene; alpha-Chloroprene; beta-chlorobutadiene; beta-Chloroprene; chlorobutadiene; Chloroprene (2-chloro-1,3-butadiene); CHLO
ROPRENE (NEOPRENE); Neoprene.

> <CAS>
126-99-8

> <Reference>
NTP467

> <MolWeight>
88.54

> <Formula>
C4H5Cl

> <SMILES>
C(C=C)(=C)Cl

> <TD50_Rat>
ND

> <TD50_Mouse>
ND

> <Canc>
3

> <SAL>
1

> <Rat_Male_Canc>
3

> <Rat_Female_Canc>
3

> <Mouse_Male_Canc>
3

> <Mouse_Female_Canc>
3

> <Rat_Male_NTP>
CE

> <Rat_Female_NTP>
CE

> <Mouse_Male_NTP>
CE

> <Mouse_Female_NTP>
CE

> <Status>
Carcinogen

> <New_Data>
true

> <iscarc>
1

$$$$
Tetrahydrofuran
  SciTegic06161615512D

  5  5  0  0  0  0            999 V2000
    2.1542   -1.2704    0.0000 C   0  0
    1.0771   -2.0437    0.0000 C   0  0
    0.0000   -1.2704    0.0000 O   0  0
    0.4143    0.0000    0.0000 C   0  0
    1.7399    0.0000    0.0000 C   0  0
  1  2  1  0
  1  5  1  0
  2  3  1  0
  3  4  1  0
  4  5  1  0
M  END
> <Name>
Tetrahydrofuran

> <Substance ID>
611

> <Synonyms>
1,4-Epoxybutane; Butylene oxide; Cyclotetramethylene; Cyclotetramethylene oxide; Furanidine; Hydrofuran; oxacyclopentane; oxolane; tetramethylene oxide; THF.

> <CAS>
109-99-9

> <Reference>
NTP475

> <MolWeight>
72.11

> <Formula>
C4H8O

> <SMILES>
O(CCC1)C1

> <TD50_Rat>
ND

> <TD50_Mouse>
ND

> <Canc>
3

> <SAL>
1

> <Rat_Male_Canc>
3

> <Rat_Female_Canc>
1

> <Mouse_Male_Canc>
1

> <Mouse_Female_Canc>
3

> <Rat_Male_NTP>
SE

> <Rat_Female_NTP>
NE

> <Mouse_Male_NTP>
NE

> <Mouse_Female_NTP>
CE

> <Status>
Non-Carcinogen

> <New_Data>
true

> <iscarc>
0

$$$$
Dimethoxane
  SciTegic06161615512D

 12 12  0  0  0  0            999 V2000
    2.3042    0.0000    0.0000 C   0  0
    2.3042   -1.3294    0.0000 C   0  0
    3.4563   -1.9877    0.0000 C   0  0
    3.4563   -3.3171    0.0000 C   0  0
    2.3042   -3.9881    0.0000 O   0  0
    1.1648   -3.3171    0.0000 C   0  0
    1.1648   -1.9877    0.0000 O   0  0
    0.0000   -3.9881    0.0000 C   0  0
    4.6084   -3.9881    0.0000 O   0  0
    5.7606   -3.3171    0.0000 C   0  0
    5.7606   -1.9877    0.0000 O   0  0
    6.9127   -3.9881    0.0000 C   0  0
  1  2  1  0
  2  3  1  0
  2  7  1  0
  3  4  1  0
  4  5  1  0
  4  9  1  0
  5  6  1  0
  6  7  1  0
  6  8  1  0
  9 10  1  0
 10 11  2  0
 10 12  1  0
M  END
> <Name>
Dimethoxane

> <Substance ID>
612

> <Synonyms>
2,6-Dimethyl-1,3-dioxan-4-ol acetate; 2,6-Dimethyl-m-dioxan-4-ol acetate; 2,6-Dimethyl-m-dioxan-4-yl acetate; 6-Acetoxy-2,4-dimethyl-1,3-dioxane; 6-Acetoxy-2,4-dimethyl-m-dioxane; acetic acid 2,6-dime
thyl-m-dioxan-4-yl ester; acetic acid, ester with 2,6-dimethyl-m-dioxan-4-ol; Acetomethoxane; DDOA; g1v gard dxn.

> <CAS>
828-00-2

> <Reference>
NTP354

> <MolWeight>
174.2

> <Formula>
C8H14O4

> <SMILES>
CC1CC(OC(O1)C)OC(=O)C

> <TD50_Rat>
NP

> <TD50_Mouse>
NP

> <Canc>
2

> <SAL>
3

> <Rat_Male_Canc>
1

> <Rat_Female_Canc>
1

> <Mouse_Male_Canc>
2

> <Mouse_Female_Canc>
1

> <Rat_Male_NTP>
NE

> <Rat_Female_NTP>
NE

> <Mouse_Male_NTP>
EE

> <Mouse_Female_NTP>
NE

> <Status>
Carcinogen

> <New_Data>
true

> <iscarc>
1

$$$$
Chlorinated trisodium phosphate
  SciTegic06161615512D

  5  4  0  0  0  0            999 V2000
    1.3356   -1.3133    0.0000 P   0  0
    1.3356   -2.6489    0.0000 O   0  0
    2.6711   -1.3133    0.0000 O   0  5
    0.0000   -1.3133    0.0000 O   0  5
    1.3356    0.0000    0.0000 O   0  5
  1  2  2  0
  1  3  1  0
  1  4  1  0
  1  5  1  0
M  CHG  3   3  -1   4  -1   5  -1
M  END
> <Name>
Chlorinated trisodium phosphate

> <Substance ID>
614

> <Synonyms>
Phosphoric acid, trisodium salt (chlorinated); sodium hypochlorite phosphate; Sodium hypochlorite phosphate (Na4(ClO)(PO4)).

> <CAS>
56802-99-4

> <Reference>
NTP294

> <MolWeight>
1594.9

> <Formula>
O4P

> <SMILES>
[Na+].[O-]P([O-].[Na+].)([O-])=O.[Na+]

> <TD50_Rat>
ND

> <TD50_Mouse>
NP

> <Canc>
1

> <SAL>
3

> <Rat_Male_Canc>
ND

> <Rat_Female_Canc>
ND

> <Mouse_Male_Canc>
1

> <Mouse_Female_Canc>
1

> <Rat_Male_NTP>
ND

> <Rat_Female_NTP>
ND

> <Mouse_Male_NTP>
NE

> <Mouse_Female_NTP>
NE

> <Status>
Non-Carcinogen

> <New_Data>
true

> <iscarc>
0

$$$$
Pentaerythritol tetranitrate
  SciTegic06161615512D

 21 20  0  0  0  0            999 V2000
    5.9906   -2.8329    0.0000 O   0  0
    5.3149   -3.9894    0.0000 C   0  0
    3.9894   -3.9894    0.0000 C   0  0
    2.6639   -3.9894    0.0000 C   0  0
    2.0012   -5.1330    0.0000 O   0  0
    3.9894   -2.6510    0.0000 C   0  0
    3.9894   -5.3149    0.0000 C   0  0
    5.1460   -1.9882    0.0000 O   0  0
    5.1460   -5.9776    0.0000 O   0  0
    0.6627   -5.1330    0.0000 N   0  3
    7.3161   -2.8329    0.0000 N   0  3
    5.1460   -7.3031    0.0000 N   0  3
    5.1460   -0.6627    0.0000 N   0  3
    6.2895    0.0000    0.0000 O   0  5
    3.9894    0.0000    0.0000 O   0  0
    7.9788   -3.9894    0.0000 O   0  5
    7.9788   -1.6763    0.0000 O   0  0
    3.9894   -7.9788    0.0000 O   0  5
    6.2895   -7.9788    0.0000 O   0  0
    0.0000   -3.9894    0.0000 O   0  5
    0.0000   -6.2895    0.0000 O   0  0
  1  2  1  0
  1 11  1  0
  2  3  1  0
  3  4  1  0
  3  6  1  0
  3  7  1  0
  4  5  1  0
  5 10  1  0
  6  8  1  0
  7  9  1  0
  8 13  1  0
  9 12  1  0
 10 20  1  0
 10 21  2  0
 11 16  1  0
 11 17  2  0
 12 18  1  0
 12 19  2  0
 13 14  1  0
 13 15  2  0
M  CHG  8  10   1  11   1  12   1  13   1  14  -1  16  -1  18  -1  20  -1
M  END
> <Name>
Pentaerythritol tetranitrate

> <Substance ID>
617

> <Synonyms>
1,3-dinitrato-2,2-bis(nitratomethyl)propane; 1,3-Propanediol, 2,2-bis[(nitrooxy)methyl]-, dinitrate (ester); 2,2-bis(hydroxymethyl)-1,3-propanediol tetranitrate; angicap; antora; baritrate; CHOT; delt
rate-20; nitropentaerythrite; Nitropentaerythritol; Pentaerithrityl tetranitrate; Pentaerythrite tetranitrate; Penthrit; peridex-la; perityl; PETN; PETN, NF; quintrate; vasodiatol.

> <CAS>
78-11-5

> <Reference>
NTP365

> <MolWeight>
316.14

> <Formula>
C5H8N4O12

> <SMILES>
O(N(=O)=O)CC(CO(N(=O)=O))(CO(N(=O)=O))CO(N(=O)=O)

> <TD50_Rat>
NP

> <TD50_Mouse>
NP

> <Canc>
2

> <SAL>
1

> <Rat_Male_Canc>
2

> <Rat_Female_Canc>
2

> <Mouse_Male_Canc>
1

> <Mouse_Female_Canc>
1

> <Rat_Male_NTP>
EE

> <Rat_Female_NTP>
EE

> <Mouse_Male_NTP>
NE

> <Mouse_Female_NTP>
NE

> <Status>
Non-Carcinogen

> <New_Data>
true

> <iscarc>
0

$$$$
Iodinated glycerol
  SciTegic06161615512D

 10 10  0  0  1  0            999 V2000
    2.9910   -0.3707    0.0000 O   0  0
    4.2180   -0.9075    0.0000 C   0  0
    4.0774   -2.2368    0.0000 C   0  0  2  0  0  0
    2.7737   -2.5052    0.0000 O   0  0
    2.1090   -1.3549    0.0000 C   0  0  2  0  0  0
    5.0616   -3.1188    0.0000 C   0  0
    6.3270   -2.7098    0.0000 O   0  0
    0.7797   -1.2143    0.0000 C   0  0
    0.2429    0.0000    0.0000 I   0  0
    0.0000   -2.2880    0.0000 C   0  0
  1  2  1  0
  1  5  1  0
  2  3  1  0
  3  4  1  0
  3  6  1  1
  4  5  1  0
  5  8  1  6
  6  7  1  0
  8  9  1  0
  8 10  1  0
M  END
> <Name>
Iodinated glycerol

> <Substance ID>
619

> <Synonyms>
2-(1-iodoethyl)-1,3-dioxolane-4-methanol; iodoglycerin; iodopropylidene glycerol; organidin.

> <CAS>
5634-39-9

> <Reference>
NTP340

> <MolWeight>
258.06

> <Formula>
C6H11IO3

> <SMILES>
IC([C@@H]1O[C@@H](CO)CO1)C

> <TD50_Rat>
101

> <TD50_Mouse>
138

> <Canc>
3

> <SAL>
3

> <Rat_Male_Canc>
3

> <Rat_Female_Canc>
1

> <Mouse_Male_Canc>
1

> <Mouse_Female_Canc>
3

> <Rat_Male_NTP>
SE

> <Rat_Female_NTP>
NE

> <Mouse_Male_NTP>
NE

> <Mouse_Female_NTP>
SE

> <Status>
Non-Carcinogen

> <New_Data>
true

> <iscarc>
0

$$$$
Dimethyl hydrogen phosphite
  SciTegic06161615512D

  6  5  0  0  0  0            999 V2000
    1.9868   -1.1643    0.0000 P   0  0  0  0  0  5
    3.3156   -1.1643    0.0000 O   0  0
    1.3288    0.0000    0.0000 O   0  0
    1.3288   -2.3158    0.0000 O   0  0
    0.0000    0.0000    0.0000 C   0  0
    0.0000   -2.3158    0.0000 C   0  0
  1  2  2  0
  1  3  1  0
  1  4  1  0
  3  5  1  0
  4  6  1  0
M  END
> <Name>
Dimethyl hydrogen phosphite

> <Substance ID>
620

> <Synonyms>
Dimethyl Phosphite; dimethyl phosphonate; DMHP.

> <CAS>
868-85-9

> <Reference>
NTP287

> <MolWeight>
110.05

> <Formula>
C2H7O3P

> <SMILES>
O=P(OC)OC

> <TD50_Rat>
139

> <TD50_Mouse>
NP

> <Canc>
3

> <SAL>
3

> <Rat_Male_Canc>
3

> <Rat_Female_Canc>
2

> <Mouse_Male_Canc>
1

> <Mouse_Female_Canc>
1

> <Rat_Male_NTP>
CE

> <Rat_Female_NTP>
EE

> <Mouse_Male_NTP>
NE

> <Mouse_Female_NTP>
NE

> <Status>
Non-Carcinogen

> <New_Data>
true

> <iscarc>
0

$$$$
C.I. Acid Orange 3
  SciTegic06161615512D

 30 32  0  0  0  0            999 V2000
   10.3701   -2.6655    0.0000 C   0  0
    9.2277   -1.9928    0.0000 C   0  0
   10.3701    0.0000    0.0000 C   0  0
   11.5252   -0.6600    0.0000 C   0  0
    9.2277   -0.6600    0.0000 C   0  0
   11.5252   -1.9928    0.0000 C   0  0
    6.9176   -5.9910    0.0000 C   0  0
    6.9176   -4.6583    0.0000 C   0  0
    9.2277   -4.6583    0.0000 C   0  0
    9.2277   -5.9910    0.0000 C   0  0
    8.0727   -3.9856    0.0000 C   0  0
    8.0727   -6.6511    0.0000 C   0  0
    2.3101   -4.6583    0.0000 C   0  0
    3.4525   -3.9856    0.0000 C   0  0
    4.6075   -5.9910    0.0000 C   0  0
    3.4525   -6.6511    0.0000 C   0  0
    4.6075   -4.6583    0.0000 C   0  0
    2.3101   -5.9910    0.0000 C   0  0
    5.7626   -6.6511    0.0000 N   0  0
   10.3701   -3.9856    0.0000 N   0  0
   10.3701   -6.6511    0.0000 S   0  0
    9.7101   -7.8061    0.0000 O   0  0
   11.0428   -5.4960    0.0000 O   0  0
   11.5252   -7.3238    0.0000 O   0  5
    3.4525   -7.9838    0.0000 N   0  3
    1.1551   -3.9856    0.0000 N   0  3
    2.3101   -8.6439    0.0000 O   0  5
    4.6075   -8.6439    0.0000 O   0  0
    1.1551   -2.6655    0.0000 O   0  5
    0.0000   -4.6583    0.0000 O   0  0
  1  2  2  0
  1  6  1  0
  1 20  1  0
  2  5  1  0
  3  4  1  0
  3  5  2  0
  4  6  2  0
  7  8  2  0
  7 12  1  0
  7 19  1  0
  8 11  1  0
  9 10  1  0
  9 11  2  0
  9 20  1  0
 10 12  2  0
 10 21  1  0
 13 14  2  0
 13 18  1  0
 13 26  1  0
 14 17  1  0
 15 16  1  0
 15 17  2  0
 15 19  1  0
 16 18  2  0
 16 25  1  0
 21 22  2  0
 21 23  2  0
 21 24  1  0
 25 27  1  0
 25 28  2  0
 26 29  1  0
 26 30  2  0
M  CHG  5  24  -1  25   1  26   1  27  -1  29  -1
M  END
> <Name>
C.I. Acid Orange 3

> <Substance ID>
623

> <Synonyms>
5-((2,4-dinitrophenyl)amino)-2-(phenylamino)benzenesulfonic acid, monosodium salt; acid fast yellow ag; acid fast yellow E5R; acid leather light brown g; acid orange 3; acid orange no. 3; acid yellow
e; airedale yellow e; amido yellow e; amido yellow ea; amido yellow ea-cf; anthralan yellow rrt; C.I. 10385; C.I. Orange 3; derma yellow p; erio fast yellow ae; nylomine acid yellow b-rd; sodium-4-(2,
4-dinitroanilino)diphenylamine-2-sulfonate; superian yellow r; tectilon orange 3gt; tertracid light yellow 2R; vondacid fast yellow ae; xylene fast yellow es.

> <CAS>
6373-74-6

> <Reference>
NTP335

> <MolWeight>
452.39

> <Formula>
C18H13N4O7S

> <SMILES>
[Na+].[O-][N+](=O)c3ccc(Nc2ccc(Nc1ccccc1)c(c2)S([O-])(=O)=O)c(c3)[N+]([O-])=O

> <TD50_Rat>
1710

> <TD50_Mouse>
NP

> <Canc>
3

> <SAL>
3

> <Rat_Male_Canc>
1

> <Rat_Female_Canc>
3

> <Mouse_Male_Canc>
1

> <Mouse_Female_Canc>
1

> <Rat_Male_NTP>
NE

> <Rat_Female_NTP>
CE

> <Mouse_Male_NTP>
NE

> <Mouse_Female_NTP>
NE

> <Status>
Non-Carcinogen

> <New_Data>
true

> <iscarc>
0

$$$$
HC Red no. 3
  SciTegic06161615512D

 14 14  0  0  0  0            999 V2000
    3.4571   -0.6585    0.0000 C   0  0
    4.6094    0.0000    0.0000 N   0  0
    5.7618   -0.6585    0.0000 C   0  0
    1.1524   -0.6585    0.0000 C   0  0
    1.1524   -1.9881    0.0000 C   0  0
    3.4571   -1.9881    0.0000 C   0  0
    2.3047   -2.6593    0.0000 C   0  0
    2.3047    0.0000    0.0000 C   0  0
    0.0000   -2.6593    0.0000 N   0  0
    6.9141    0.0000    0.0000 C   0  0
    8.0665   -0.6585    0.0000 O   0  0
    4.6094   -2.6593    0.0000 N   0  3
    4.6094   -3.9889    0.0000 O   0  5
    5.7618   -1.9881    0.0000 O   0  0
  1  2  1  0
  1  6  1  0
  1  8  2  0
  2  3  1  0
  3 10  1  0
  4  5  2  0
  4  8  1  0
  5  7  1  0
  5  9  1  0
  6  7  2  0
  6 12  1  0
 10 11  1  0
 12 13  1  0
 12 14  2  0
M  CHG  2  12   1  13  -1
M  END
> <Name>
HC Red no. 3

> <Substance ID>
624

> <Synonyms>
2-(4-amino-2-nitroanilino)-ethanol; 2-((4-Amino-2-nitrophenyl)amino)ethanol; hc red 3; N-(2-hydroxyethyl)-2-nitro-p-phenylenediamine.

> <CAS>
2871-01-4

> <Reference>
NTP281

> <MolWeight>
197.19

> <Formula>
C8H11N3O3

> <SMILES>
C1(=C(C=C(N)C=C1)[N+](=O)[O-])NCCO

> <TD50_Rat>
NP

> <TD50_Mouse>
NP

> <Canc>
2

> <SAL>
3

> <Rat_Male_Canc>
1

> <Rat_Female_Canc>
1

> <Mouse_Male_Canc>
2

> <Mouse_Female_Canc>
ND

> <Rat_Male_NTP>
NE

> <Rat_Female_NTP>
NE

> <Mouse_Male_NTP>
EE

> <Mouse_Female_NTP>
ND

> <Status>
Carcinogen

> <New_Data>
true

> <iscarc>
1

$$$$
Tetrakis(hydroxymethyl)phosphonium sulfate
  SciTegic06161615512D

 18 16  0  0  0  0            999 V2000
   14.0607   -4.2560    0.0000 O   0  0
   13.4144   -3.1053    0.0000 C   0  0
   14.0607   -1.9704    0.0000 P   0  3
   15.2114   -2.6324    0.0000 C   0  0
   16.3463   -1.9704    0.0000 O   0  0
   14.7227   -0.8354    0.0000 C   0  0
   16.0469   -0.8354    0.0000 O   0  0
   12.9258   -1.3083    0.0000 C   0  0
   12.9258    0.0000    0.0000 O   0  0
    1.0561   -4.1142    0.0000 O   0  0
    0.4414   -3.0423    0.0000 C   0  0
    1.0561   -1.9862    0.0000 P   0  3
    2.1280   -2.6009    0.0000 C   0  0
    3.1999   -1.9862    0.0000 O   0  0
    1.6867   -0.9143    0.0000 C   0  0
    2.9162   -0.9143    0.0000 O   0  0
    0.0000   -1.3556    0.0000 C   0  0
    0.0000   -0.1261    0.0000 O   0  0
  1  2  1  0
  2  3  1  0
  3  4  1  0
  3  6  1  0
  3  8  1  0
  4  5  1  0
  6  7  1  0
  8  9  1  0
 10 11  1  0
 11 12  1  0
 12 13  1  0
 12 15  1  0
 12 17  1  0
 13 14  1  0
 15 16  1  0
 17 18  1  0
M  CHG  2   3   1  12   1
M  END
> <Name>
Tetrakis(hydroxymethyl)phosphonium sulfate

> <Substance ID>
626

> <Synonyms>
Octakis(hydroxymethyl)diphosphonium sulfate; pyroset tko; tetrakis(hydroxymethyl)phosphonium sulfate (2:1); THPS.

> <CAS>
55566-30-8

> <Reference>
NTP296

> <MolWeight>
406.31

> <Formula>
C8H24O12P2S

> <SMILES>
OC[P+](CO)(CO)CO.S(=O)(=O)([O-])[O-].OC[P+](CO)(CO)CO

> <TD50_Rat>
NP

> <TD50_Mouse>
NP

> <Canc>
1

> <SAL>
1

> <Rat_Male_Canc>
1

> <Rat_Female_Canc>
1

> <Mouse_Male_Canc>
1

> <Mouse_Female_Canc>
1

> <Rat_Male_NTP>
NE

> <Rat_Female_NTP>
NE

> <Mouse_Male_NTP>
NE

> <Mouse_Female_NTP>
NE

> <Status>
Non-Carcinogen

> <RemovedSalts>
SO4

> <New_Data>
true

> <iscarc>
0

$$$$
Bromoethane
  SciTegic06161615512D

  3  2  0  0  0  0            999 V2000
    0.0000   -0.6599    0.0000 C   0  0
    1.1548    0.0000    0.0000 C   0  0
    2.3095   -0.6599    0.0000 Br  0  0
  1  2  1  0
  2  3  1  0
M  END
> <Name>
Bromoethane

> <Substance ID>
627

> <Synonyms>
1-Bromoethane; bromic ether; Ethyl bromide; halon 2001; hydrobromic ether; Monobromoethane.

> <CAS>
74-96-4

> <Reference>
NTP363

> <MolWeight>
108.97

> <Formula>
C2H5Br

> <SMILES>
CCBr

> <TD50_Rat>
149

> <TD50_Mouse>
535

> <Canc>
3

> <SAL>
3

> <Rat_Male_Canc>
3

> <Rat_Female_Canc>
2

> <Mouse_Male_Canc>
2

> <Mouse_Female_Canc>
3

> <Rat_Male_NTP>
SE

> <Rat_Female_NTP>
EE

> <Mouse_Male_NTP>
EE

> <Mouse_Female_NTP>
CE

> <Status>
Carcinogen

> <New_Data>
true

> <iscarc>
1

$$$$
2,3,4,5,6-Pentachlorophenol, technical grade
  SciTegic06161615512D

 12 12  0  0  0  0            999 V2000
    3.4567   -1.9879    0.0000 C   0  0
    3.4567   -3.3174    0.0000 C   0  0
    1.1522   -3.3174    0.0000 C   0  0
    1.1522   -1.9879    0.0000 C   0  0
    2.3045   -3.9885    0.0000 C   0  0
    2.3045   -1.3295    0.0000 C   0  0
    2.3045    0.0000    0.0000 O   0  0
    0.0000   -1.3295    0.0000 Cl  0  0
    0.0000   -3.9885    0.0000 Cl  0  0
    2.3045   -5.3180    0.0000 Cl  0  0
    4.6089   -3.9885    0.0000 Cl  0  0
    4.6089   -1.3295    0.0000 Cl  0  0
  1  2  2  0
  1  6  1  0
  1 12  1  0
  2  5  1  0
  2 11  1  0
  3  4  1  0
  3  5  2  0
  3  9  1  0
  4  6  2  0
  4  8  1  0
  5 10  1  0
  6  7  1  0
M  END
> <Name>
2,3,4,5,6-Pentachlorophenol, technical grade

> <Substance ID>
629

> <Synonyms>
Chem-tol; Chlorophen; cryptogil oil; dowcide 7; Dowicide 7; Dowicide EC-7; dow pentachlorophenol dp-2 antimicrobial; Dura-Treet; durotox; EP 30; Forepen; fungifen; glazd penta; grundier arbezol; lauxt
ol; lauxtol a; liroprem; Osmoplastic; Oz-88; PCP; penchlorol; Penta; pentachlorofenol; Pentachlorophenate; pentachloro-Phenol; Pentachlorophenol; pentachlorophenol, dp-2; Pentacon; penta-kil; Penwar;
peratox; permacide; permagard; permasan; permatox dp-2; permatox penta; permite; Pol-NU; priltox; santobrite; Santophen 20; Sinituho; term-i-trol; thompson's wood fix.

> <CAS>
87-86-5

> <Reference>
CPDB & NTP349

> <MolWeight>
266.34

> <Formula>
C6HCl5O

> <SMILES>
OC1=C(C(=C(C(=C1Cl)Cl)Cl)Cl)Cl

> <TD50_Rat>
13.1

> <TD50_Mouse>
23

> <Canc>
3

> <SAL>
1

> <Rat_Male_Canc>
1

> <Rat_Female_Canc>
3

> <Mouse_Male_Canc>
3

> <Mouse_Female_Canc>
3

> <Rat_Male_NTP>
ND

> <Rat_Female_NTP>
ND

> <Mouse_Male_NTP>
CE

> <Mouse_Female_NTP>
CE

> <Status>
Carcinogen

> <New_Data>
true

> <iscarc>
1

$$$$
Penicillin VK
  SciTegic06161615512D

 24 26  0  0  1  0            999 V2000
    5.8277   -1.5345    0.0000 C   0  0
    5.8277   -2.8621    0.0000 C   0  0
    2.2242   -6.0864    0.0000 C   0  0
    0.9483   -6.4312    0.0000 C   0  0
    0.3448   -4.2070    0.0000 C   0  0
    1.6380   -3.8622    0.0000 C   0  0
    0.0000   -5.4829    0.0000 C   0  0
    2.5690   -4.7932    0.0000 C   0  0
    1.9828   -2.5690    0.0000 O   0  0
    3.2587   -2.2242    0.0000 C   0  0
    3.6035   -0.9483    0.0000 C   0  0
    4.8967   -0.6035    0.0000 N   0  0
    2.6725    0.0000    0.0000 O   0  0
    7.1554   -2.8621    0.0000 N   0  0
    7.1554   -1.5345    0.0000 C   0  0
    8.4313   -1.1207    0.0000 S   0  0
    9.2072   -2.2070    0.0000 C   0  0
    8.4313   -3.2760    0.0000 C   0  0  2  0  0  0
    4.8967   -3.8105    0.0000 O   0  0
   10.3624   -1.5345    0.0000 C   0  0
   10.3624   -2.8621    0.0000 C   0  0
    8.8451   -4.5519    0.0000 C   0  0
    7.9485   -5.5346    0.0000 O   0  5
   10.1382   -4.8277    0.0000 O   0  0
  1 15  1  0
  1  2  1  0
  1 12  1  0
  2 14  1  0
  2 19  2  0
  3  4  2  0
  3  8  1  0
  4  7  1  0
  5  6  1  0
  5  7  2  0
  6  8  2  0
  6  9  1  0
  9 10  1  0
 10 11  1  0
 11 12  1  0
 11 13  2  0
 14 15  1  0
 14 18  1  0
 15 16  1  0
 16 17  1  0
 17 18  1  0
 17 20  1  0
 17 21  1  0
 18 22  1  6
 22 23  1  0
 22 24  2  0
M  CHG  1  23  -1
M  END
> <Name>
Penicillin VK

> <Substance ID>
633

> <Synonyms>
3,3-dimethyl-7-oxo-6-(2-phenoxy-acetamido)-4-thia-1-azabicyclo[3.2.0]heptane-2-carboxylic acid monopotassium salt; 4-Thia-1-azabicyclo[3.2.0]heptane-2-carboxylic acid, 3,3-dimethyl-7-oxo-6-[(phenoxyac
etyl)amino]-, monopotassium salt, [2S-(2alpha,5alpha,6beta)]-; ospeneff; pedipen; penagen; pencompren; pen-vee-k; penvikal; Pen-v-k; pfizerpen vk; penicillin potassium phenoxymethyl; Penicillin V Pota
ssium; phenoxymethylpenicillin potassium; PVK; qidpen vk; robicillin vk; rocillin-vk; roscopenin; sk-penicillin vk; stabillin vk syrup 125; stabillin vk syrup 62.5; sumapen vk; suspen; uticillin vk; V
-CIL-K; v-cillin-k; veetids; Vepen; 4-thia-1-azobicyclo[3.2.0]heptane-2-carboxylic acid, 3,3-dimethyl-7-oxo-6-(2-phenoxy-acetamido)-, monopotassium salt; antibiocin; apsin vk; arcacil; arcasin; beromy
cin; beromycin 400; distakaps v-k; distaquaine v-k; betapen-vk; calciopen k; cliacil; compocillin-vk; D-alpha-phenoxymethylpencillinate k salt; dowpen v-k; DQV-K; fenoxypen; icipen; isocillin; ispenor
al; ledercillin vk; megacillin oral; oracil-vk; orapen.

> <CAS>
132-98-9

> <Reference>
NTP336

> <MolWeight>
388.48

> <Formula>
C16H17N2O5S

> <SMILES>
N12([C@@H]([C@@H](C1=O)NC(COC3=CC=CC=C3)=O)SC([C@@H]2C(=O)[O-])(C)C).[K+]

> <TD50_Rat>
NP

> <TD50_Mouse>
NP

> <Canc>
1

> <SAL>
1

> <Rat_Male_Canc>
1

> <Rat_Female_Canc>
1

> <Mouse_Male_Canc>
1

> <Mouse_Female_Canc>
1

> <Rat_Male_NTP>
NE

> <Rat_Female_NTP>
NE

> <Mouse_Male_NTP>
NE

> <Mouse_Female_NTP>
NE

> <Status>
Non-Carcinogen

> <New_Data>
true

> <iscarc>
0

$$$$
2-Amino-4-nitrophenol
  SciTegic06161615512D

 11 11  0  0  0  0            999 V2000
    3.9866   -2.3034    0.0000 C   0  0
    3.3285   -3.4551    0.0000 C   0  0
    1.3289   -2.3034    0.0000 C   0  0
    1.9996   -1.1517    0.0000 C   0  0
    1.9996   -3.4551    0.0000 C   0  0
    3.3285   -1.1517    0.0000 C   0  0
    3.9866    0.0000    0.0000 O   0  0
    1.3289    0.0000    0.0000 N   0  0
    1.3289   -4.6068    0.0000 N   0  3
    0.0000   -4.6068    0.0000 O   0  5
    1.9996   -5.7585    0.0000 O   0  0
  1  2  2  0
  1  6  1  0
  2  5  1  0
  3  4  1  0
  3  5  2  0
  4  6  2  0
  4  8  1  0
  5  9  1  0
  6  7  1  0
  9 10  1  0
  9 11  2  0
M  CHG  2   9   1  10  -1
M  END
> <Name>
2-Amino-4-nitrophenol

> <Substance ID>
637

> <Synonyms>
2-hydroxy-5-nitroaniline; 3-amino-4-hydroxynitrobenzene; p-nitro-o-aminophenol; C.I. 76530; ursol 4gl.

> <CAS>
99-57-0

> <Reference>
NTP339

> <MolWeight>
154.13

> <Formula>
C6H6N2O3

> <SMILES>
O=[N+](C1=CC(=C(C=C1)O)N)[O-]

> <TD50_Rat>
839

> <TD50_Mouse>
NP

> <Canc>
3

> <SAL>
3

> <Rat_Male_Canc>
3

> <Rat_Female_Canc>
1

> <Mouse_Male_Canc>
1

> <Mouse_Female_Canc>
1

> <Rat_Male_NTP>
SE

> <Rat_Female_NTP>
NE

> <Mouse_Male_NTP>
NE

> <Mouse_Female_NTP>
NE

> <Status>
Non-Carcinogen

> <New_Data>
true

> <iscarc>
0

$$$$
Xylenes (mixed)
  SciTegic06161615512D

 32 32  0  0  0  0            999 V2000
    1.9985   -0.4174    0.0000 C   0  0
    3.3267   -0.4174    0.0000 C   0  0
    3.3267   -2.7195    0.0000 C   0  0
    1.9985   -2.7195    0.0000 C   0  0
    3.9971   -1.5685    0.0000 C   0  0
    1.3408   -1.5685    0.0000 C   0  0
    0.0000   -1.5685    0.0000 C   0  0
    3.9971   -3.8706    0.0000 C   0  0
    7.0961   -1.9985    0.0000 C   0  0
    7.0961   -3.3267    0.0000 C   0  0
    4.7940   -3.3267    0.0000 C   0  0
    4.7940   -1.9985    0.0000 C   0  0
    5.9450   -3.9971    0.0000 C   0  0
    5.9450   -1.3281    0.0000 C   0  0
    5.9450    0.0000    0.0000 C   0  0
    5.9450   -5.3252    0.0000 C   0  0
   11.6624   -1.1258    0.0000 C   0  0
   12.8135   -1.7962    0.0000 C   0  0
   11.6624   -3.7947    0.0000 C   0  0
   10.5114   -3.1243    0.0000 C   0  0
   12.8135   -3.1243    0.0000 C   0  0
   10.5114   -1.7962    0.0000 C   0  0
    9.3603   -1.1258    0.0000 C   0  0
    9.3603   -3.7947    0.0000 C   0  0
   16.8991   -2.0112    0.0000 C   0  0
   17.5695   -3.1623    0.0000 C   0  0
   15.5710   -4.3133    0.0000 C   0  0
   14.9132   -3.1623    0.0000 C   0  0
   16.8991   -4.3133    0.0000 C   0  0
   15.5710   -2.0112    0.0000 C   0  0
   14.9132   -0.8601    0.0000 C   0  0
   13.5851   -0.8601    0.0000 C   0  0
  1  2  2  0
  1  6  1  0
  2  5  1  0
  3  4  1  0
  3  5  2  0
  3  8  1  0
  4  6  2  0
  6  7  1  0
  9 10  2  0
  9 14  1  0
 10 13  1  0
 11 12  1  0
 11 13  2  0
 12 14  2  0
 13 16  1  0
 14 15  1  0
 17 18  2  0
 17 22  1  0
 18 21  1  0
 19 20  1  0
 19 21  2  0
 20 22  2  0
 20 24  1  0
 22 23  1  0
 25 26  2  0
 25 30  1  0
 26 29  1  0
 27 28  1  0
 27 29  2  0
 28 30  2  0
 30 31  1  0
 31 32  1  0
M  END
> <Name>
Xylenes (mixed)

> <Substance ID>
638

> <Synonyms>
o-,m-,p-Xylene; m & p-xylene; m-,p-,o-Xylene; Dimethylbenzene; Dimethylbenzenes; Dimethylbenzene (mixed isomers); except p-xylene, mixed or all isomers; Socal aquatic solvent 3501; Total xylenes; Xyle
ne; Xylene (o-,m-,p-); Xylene (o-, m-, p-isomers); xylenes; Xylenes; Xylenes (o-, m-, p-isomers);  Xylenes mixed isomers; Xylene (mixed); Xylene (mixed isomers); xylene, mixed or all isomers, except p
-; Xylene mixture; Xylene mixture (m-xylene, o-xylene, p-xylene); Xylene mixture (60% m-xylene, 9% o-xylene, 14% p-xylene, 17% ethylbenzene); Xylene, (total); Xylol.

> <CAS>
1330-20-7

> <Reference>
NTP327

> <MolWeight>
106.17

> <Formula>
C32H40

> <SMILES>
c1(ccccc1)CC.c1cccc(c1C)C.c1cc(ccc1C)C.c1ccc(cc1C)C

> <TD50_Rat>
NP

> <TD50_Mouse>
NP

> <Canc>
1

> <SAL>
1

> <Rat_Male_Canc>
1

> <Rat_Female_Canc>
1

> <Mouse_Male_Canc>
1

> <Mouse_Female_Canc>
1

> <Rat_Male_NTP>
NE

> <Rat_Female_NTP>
NE

> <Mouse_Male_NTP>
NE

> <Mouse_Female_NTP>
NE

> <Status>
Non-Carcinogen

> <New_Data>
true

> <iscarc>
0

$$$$
Tetrakis(hydroxymethyl)phosphonium chloride
  SciTegic06161615512D

  9  8  0  0  1  0            999 V2000
    2.0008   -1.9881    0.0000 P   0  3  2  0  0  0
    0.6711   -1.9881    0.0000 C   0  0
    2.0008   -0.6585    0.0000 C   0  0
    3.3304   -1.9881    0.0000 C   0  0
    2.0008   -3.3177    0.0000 C   0  0
    0.0000   -3.1404    0.0000 O   0  0
    3.1531    0.0000    0.0000 O   0  0
    3.9889   -3.1404    0.0000 O   0  0
    3.1531   -3.9889    0.0000 O   0  0
  1  2  1  0
  1  3  1  0
  1  4  1  6
  1  5  1  1
  2  6  1  0
  3  7  1  0
  4  8  1  6
  5  9  1  1
M  CHG  1   1   1
M  END
> <Name>
Tetrakis(hydroxymethyl)phosphonium chloride

> <Substance ID>
639

> <Synonyms>
Tetramethylolphosphonium chloride; THPC.

> <CAS>
124-64-1

> <Reference>
NTP296

> <MolWeight>
190.61

> <Formula>
C4H12O4P

> <SMILES>
[Cl-].[P+](CO)(CO)(CO)CO

> <TD50_Rat>
NP

> <TD50_Mouse>
NP

> <Canc>
1

> <SAL>
1

> <Rat_Male_Canc>
1

> <Rat_Female_Canc>
1

> <Mouse_Male_Canc>
1

> <Mouse_Female_Canc>
1

> <Rat_Male_NTP>
NE

> <Rat_Female_NTP>
NE

> <Mouse_Male_NTP>
NE

> <Mouse_Female_NTP>
NE

> <Status>
Non-Carcinogen

> <New_Data>
true

> <iscarc>
0

$$$$
Roxarsone
  SciTegic06161615512D

 14 14  0  0  0  0            999 V2000
    3.3182   -2.3139    0.0000 C   0  0
    3.9920   -3.4581    0.0000 C   0  0
    1.9960   -4.6150    0.0000 C   0  0
    1.3222   -3.4581    0.0000 C   0  0
    3.3182   -4.6150    0.0000 C   0  0
    1.9960   -2.3139    0.0000 C   0  0
    3.9920   -5.7592    0.0000 O   0  0
    1.3222   -1.1569    0.0000 As  0  0
    2.4791   -0.4958    0.0000 O   0  0
    0.1780   -1.8180    0.0000 O   0  0
    0.6611    0.0000    0.0000 O   0  0
    1.3222   -5.7592    0.0000 N   0  3
    0.0000   -5.7592    0.0000 O   0  5
    1.9960   -6.9162    0.0000 O   0  0
  1  2  2  0
  1  6  1  0
  2  5  1  0
  3  4  1  0
  3  5  2  0
  3 12  1  0
  4  6  2  0
  5  7  1  0
  6  8  1  0
  8  9  1  0
  8 10  2  0
  8 11  1  0
 12 13  1  0
 12 14  2  0
M  CHG  2  12   1  13  -1
M  END
> <Name>
Roxarsone

> <Substance ID>
640

> <Synonyms>
2-nitro-1-hydroxybenzene-4-arsonic acid; 3n4hpa; 3-nitro-4-hydroxybenzenearsonic acid; 3-Nitro-4-hydroxyphenylarsonic acid; 4-hydroxy-3-nitrobenzenearsonic acid; 4-hydroxy-3-nitrophenyl arsonic acid;
aklomix-3; nitro acid 100 per cent; nitrophenoloarsonic acid; ren o-sal; ristat.

> <CAS>
121-19-7

> <Reference>
NTP345

> <MolWeight>
263.04

> <Formula>
C6H6AsNO6

> <SMILES>
Oc1ccc(cc1N(=O)(=O))[As](O)(O)=O

> <TD50_Rat>
NP

> <TD50_Mouse>
NP

> <Canc>
2

> <SAL>
1

> <Rat_Male_Canc>
2

> <Rat_Female_Canc>
1

> <Mouse_Male_Canc>
1

> <Mouse_Female_Canc>
1

> <Rat_Male_NTP>
EE

> <Rat_Female_NTP>
NE

> <Mouse_Male_NTP>
NE

> <Mouse_Female_NTP>
NE

> <Status>
Non-Carcinogen

> <New_Data>
true

> <iscarc>
0

$$$$
C.I. Pigment Red 3
  SciTegic06161615512D

 23 25  0  0  0  0            999 V2000
    7.3201   -2.3049    0.0000 C   0  0
    9.9796   -2.3049    0.0000 C   0  0
    9.3084   -1.1525    0.0000 C   0  0
    7.9786   -1.1525    0.0000 C   0  0
    1.3298   -1.1525    0.0000 C   0  0
    2.0010    0.0000    0.0000 C   0  0
    3.9893   -1.1525    0.0000 C   0  0
    3.3308   -2.3049    0.0000 C   0  0
    3.3308    0.0000    0.0000 C   0  0
    2.0010   -2.3049    0.0000 C   0  0
    0.0000   -1.1525    0.0000 C   0  0
    5.3191   -1.1525    0.0000 N   0  0
    5.9903   -2.3049    0.0000 N   0  0
    9.3084   -3.4574    0.0000 C   0  0
    7.9786   -3.4574    0.0000 C   0  0
    7.9786   -5.7624    0.0000 C   0  0
    9.3084   -5.7624    0.0000 C   0  0
    7.3201   -4.6099    0.0000 C   0  0
    9.9796   -4.6099    0.0000 C   0  0
    7.3201    0.0000    0.0000 O   0  0
    3.9893   -3.4574    0.0000 N   0  3
    3.3308   -4.6099    0.0000 O   0  5
    5.3191   -3.4574    0.0000 O   0  0
  1 15  2  0
  1  4  1  0
  1 13  1  0
  2  3  1  0
  2 14  2  0
  3  4  2  0
  4 20  1  0
  5  6  2  0
  5 10  1  0
  5 11  1  0
  6  9  1  0
  7  8  1  0
  7  9  2  0
  7 12  1  0
  8 10  2  0
  8 21  1  0
 12 13  2  0
 14 15  1  0
 14 19  1  0
 15 18  1  0
 16 17  1  0
 16 18  2  0
 17 19  2  0
 21 22  1  0
 21 23  2  0
M  CHG  2  21   1  22  -1
M  END
> <Name>
C.I. Pigment Red 3

> <Substance ID>
646

> <Synonyms>
1-[(4-methyl-2-nitrophenyl)azo]-2-Naphthalenol; 1-(4-Methyl-2-nitrophenylazo)-2-naphthol; 2-Naphthalenol, 1-(4-Methyl-2-nitrophenylazo)-2-naphthol; accosperse toluidine red xl; adc toluidine red b; ca
lcotone toluidine red yp; carnelio helio red; chromotex red j; C.I. 12120; C.P. toluidine toner A-2989; C.P. toluidine toner deep X-1865; C.P. toluidine toner RT-6101; dainachi permanent red 4 r; d an
d c red no. 35; deep fastona red; duplex toluidine red l 20-3140; eljon fast scarlet rn; enialit light red rl; fastona red b; fast red r; graphtol red A-4RL; hansa red b; hansa scarlet rb; helio fast
red rl; helio red rl; hispalit fast scarlet rn; independence red; irgalite fast red P4R; isol fast red hb; isol toluidine red rnb; kromon helio fast red; lake red 4R; lithol fast scarlet rn; lutetia f
ast red 3R; Toluidine red; toluidine toner; monolite fast scarlet ca; no. 2 forthfast scarlet; oralith red P4R; permanent red 4R; pigment red 3; pigment scarlet; polymo red fgn; recolite fast red rbl;
 sanyo scarlet; scarlet pigment rn; segnale light red b; siegle red 1; silogomma red rll; silosol red rbn; siloton red brll; symuler fast scarlet 4R; syton fast scarlet rb; tertropigment red hab; vers
al scarlet prnl; vulcafor scarlet a.

> <CAS>
2425-85-6

> <Reference>
NTP407

> <MolWeight>
307.31

> <Formula>
C17H13N3O3

> <SMILES>
OC1=CC=C2C(=C1/N=N/C3=C(C=C(C=C3)C)[N+](=O)[O-])C=CC=C2

> <TD50_Rat>
1170

> <TD50_Mouse>
35500

> <Canc>
3

> <SAL>
3

> <Rat_Male_Canc>
3

> <Rat_Female_Canc>
3

> <Mouse_Male_Canc>
3

> <Mouse_Female_Canc>
1

> <Rat_Male_NTP>
SE

> <Rat_Female_NTP>
SE

> <Mouse_Male_NTP>
SE

> <Mouse_Female_NTP>
NE

> <Status>
Carcinogen

> <CanonicalTautomer>
Yes

> <NumberOfTautomers>
2

> <New_Data>
true

> <iscarc>
1

$$$$
Molybdenum trioxide
  SciTegic06161615512D

  4  3  0  0  0  0            999 V2000
    1.1541   -0.6595    0.0000 Mo  0  0
    1.1541   -1.9911    0.0000 O   0  0
    2.3081    0.0000    0.0000 O   0  0
    0.0000    0.0000    0.0000 O   0  0
  1  2  2  0
  1  3  2  0
  1  4  2  0
M  END
> <Name>
Molybdenum trioxide

> <Substance ID>
647

> <Synonyms>
mo 1202t; molybdic acid anhydride; Molybdic anhydride; Molybdic trioxide; molybdena; molybdenum anhydride; Molybdenum oxide; molybdenum peroxide; MOLYBDENUM TRIOXIDE, 99.998%; Molybdenum (VI) oxide; n
atural molybdite.

> <CAS>
1313-27-5

> <Reference>
NTP462

> <MolWeight>
143.94

> <Formula>
MoO3

> <SMILES>
O=[Mo](=O)=O

> <TD50_Rat>
NP

> <TD50_Mouse>
ND

> <Canc>
3

> <SAL>
1

> <Rat_Male_Canc>
2

> <Rat_Female_Canc>
1

> <Mouse_Male_Canc>
3

> <Mouse_Female_Canc>
3

> <Rat_Male_NTP>
EE

> <Rat_Female_NTP>
NE

> <Mouse_Male_NTP>
SE

> <Mouse_Female_NTP>
SE

> <Status>
Carcinogen

> <New_Data>
true

> <iscarc>
1

$$$$
Tetrafluoroethylene
  SciTegic06161615512D

  6  5  0  0  0  0            999 V2000
    0.9802   -1.6992    0.0000 C   0  0
    3.2243   -2.2022    0.0000 F   0  0
    2.2409   -1.3026    0.0000 C   0  0
    0.0000   -0.7996    0.0000 F   0  0
    0.6932   -2.9986    0.0000 F   0  0
    2.5310    0.0000    0.0000 F   0  0
  1  3  2  0
  1  4  1  0
  1  5  1  0
  2  3  1  0
  3  6  1  0
M  END
> <Name>
Tetrafluoroethylene

> <Substance ID>
650

> <Synonyms>
Fluoroplast 4; perfluoroethene; perfluoroethylene; Tetrafluorethene; TFE.

> <CAS>
116-14-3

> <Reference>
NTP450

> <MolWeight>
100.02

> <Formula>
C2F4

> <SMILES>
FC(F)=C(F)F

> <TD50_Rat>
ND

> <TD50_Mouse>
ND

> <Canc>
3

> <SAL>
ND

> <Rat_Male_Canc>
3

> <Rat_Female_Canc>
3

> <Mouse_Male_Canc>
3

> <Mouse_Female_Canc>
3

> <Rat_Male_NTP>
CE

> <Rat_Female_NTP>
CE

> <Mouse_Male_NTP>
CE

> <Mouse_Female_NTP>
CE

> <Status>
Carcinogen

> <New_Data>
true

> <iscarc>
1

$$$$
Glycidol
  SciTegic06161615512D

  5  5  0  0  0  0            999 V2000
    0.0000   -1.8225    0.0000 O   0  0
    0.0000   -0.4936    0.0000 C   0  0
    1.1517   -1.1517    0.0000 C   0  0
    2.4806   -1.1517    0.0000 C   0  0
    3.1514    0.0000    0.0000 O   0  0
  1  2  1  0
  1  3  1  0
  2  3  1  0
  3  4  1  0
  4  5  1  0
M  END
> <Name>
Glycidol

> <Substance ID>
655

> <Synonyms>
1,2-Epoxy-3-Hydroxy Propane; 2,3-Epoxy-1-propanol; 2,3-epoxypropanol; 2-hydroxymethyloxirane; 3-hydroxy-1,2-epoxypropane; 3-Hydroxypropylene oxide; allyl alcohol oxide; epihydrin alcohol; epoxypropyl
alcohol; glycide; glycidyl alcohol; Oxiranemethanol; oxiranylmethanol; (RS)-3-Hydroxy-1,2-epoxypropane.

> <CAS>
556-52-5

> <Reference>
NTP374

> <MolWeight>
74.08

> <Formula>
C3H6O2

> <SMILES>
OCC1CO1

> <TD50_Rat>
4.28

> <TD50_Mouse>
34.7

> <Canc>
3

> <SAL>
3

> <Rat_Male_Canc>
3

> <Rat_Female_Canc>
3

> <Mouse_Male_Canc>
3

> <Mouse_Female_Canc>
3

> <Rat_Male_NTP>
CE

> <Rat_Female_NTP>
CE

> <Mouse_Male_NTP>
CE

> <Mouse_Female_NTP>
CE

> <Status>
Carcinogen

> <New_Data>
true

> <iscarc>
1

$$$$
Allyl Glycidyl Ether
  SciTegic06161615512D

  8  8  0  0  0  0            999 V2000
    5.9259   -0.6740    0.0000 C   0  0
    4.7814    0.0000    0.0000 C   0  0
    3.6242   -0.6740    0.0000 O   0  0
    2.4797    0.0000    0.0000 C   0  0
    1.3225   -0.6740    0.0000 C   0  0
    7.0831    0.0000    0.0000 C   0  0
    0.6613   -1.8185    0.0000 O   0  0
    0.0000   -0.6740    0.0000 C   0  0
  1  2  1  0
  1  6  2  0
  2  3  1  0
  3  4  1  0
  4  5  1  0
  5  8  1  0
  5  7  1  0
  7  8  1  0
M  END
> <Name>
Allyl Glycidyl Ether

> <Substance ID>
657

> <Synonyms>
1,2-Epoxy-3-Allyloxypropane; 1-allyloxy-2,3-epoxypropane; [(2-propenyloxy)methyl]oxirane; AGE; Allyl 2,3-epoxypropyl ether; Allyl Glycidyl Ether-Ethylene Glycol Prepolymer(18/1).

> <CAS>
106-92-3

> <Reference>
NTP376

> <MolWeight>
114.14

> <Formula>
C6H10O2

> <SMILES>
C=CCOCC1CO1

> <TD50_Rat>
NP

> <TD50_Mouse>
182

> <Canc>
3

> <SAL>
3

> <Rat_Male_Canc>
2

> <Rat_Female_Canc>
1

> <Mouse_Male_Canc>
3

> <Mouse_Female_Canc>
2

> <Rat_Male_NTP>
EE

> <Rat_Female_NTP>
NE

> <Mouse_Male_NTP>
SE

> <Mouse_Female_NTP>
EE

> <Status>
Carcinogen

> <New_Data>
true

> <iscarc>
1

$$$$
Vinyl Toluene
  SciTegic06161615512D

 18 18  0  0  0  0            999 V2000
    1.9874    0.0000    0.0000 C   0  0
    3.3165    0.0000    0.0000 C   0  0
    3.3165   -2.3039    0.0000 C   0  0
    1.9874   -2.3039    0.0000 C   0  0
    3.9874   -1.1519    0.0000 C   0  0
    1.3291   -1.1519    0.0000 C   0  0
    0.0000   -1.1519    0.0000 C   0  0
    3.9874   -3.4558    0.0000 C   0  0
    5.3166   -3.4558    0.0000 C   0  0
    7.7217   -1.2152    0.0000 C   0  0
    8.8737   -0.5570    0.0000 C   0  0
   10.0256   -2.5444    0.0000 C   0  0
    8.8737   -3.2153    0.0000 C   0  0
   10.0256   -1.2152    0.0000 C   0  0
    7.7217   -2.5444    0.0000 C   0  0
   11.1775   -3.2153    0.0000 C   0  0
   12.3294   -2.5444    0.0000 C   0  0
    6.5698   -0.5570    0.0000 C   0  0
  1  2  2  0
  1  6  1  0
  2  5  1  0
  3  4  1  0
  3  5  2  0
  3  8  1  0
  4  6  2  0
  6  7  1  0
  8  9  2  0
 10 11  2  0
 10 15  1  0
 10 18  1  0
 11 14  1  0
 12 13  1  0
 12 14  2  0
 12 16  1  0
 13 15  2  0
 16 17  2  0
M  END
> <Name>
Vinyl Toluene

> <Substance ID>
658

> <Synonyms>
ethenylmethylbenzene; methylethenylbenzene; methylstyrene; methylstyrenetolylethylene; Methylstyrene (mixed isomers); Methyl styrene (mixture); Vinyl Toluene, Mixed Isomers; Vinyltoluene, stabilized w
ith 10 to 15 ppm p-tert-butylcatechol.

> <CAS>
25013-15-4

> <Reference>
NTP375

> <MolWeight>
118.18

> <Formula>
C18H20

> <SMILES>
C=C\c1cc(ccc1)C.C=C\c1ccc(cc1)C

> <TD50_Rat>
NP

> <TD50_Mouse>
NP

> <Canc>
1

> <SAL>
1

> <Rat_Male_Canc>
1

> <Rat_Female_Canc>
1

> <Mouse_Male_Canc>
1

> <Mouse_Female_Canc>
1

> <Rat_Male_NTP>
NE

> <Rat_Female_NTP>
NE

> <Mouse_Male_NTP>
NE

> <Mouse_Female_NTP>
NE

> <Status>
Non-Carcinogen

> <New_Data>
true

> <iscarc>
0

$$$$
Benzaldehyde
  SciTegic06161615512D

  8  8  0  0  0  0            999 V2000
    2.3052   -2.6599    0.0000 C   0  0
    2.3052   -3.9898    0.0000 C   0  0
    0.0000   -3.9898    0.0000 C   0  0
    0.0000   -2.6599    0.0000 C   0  0
    1.1526   -4.6484    0.0000 C   0  0
    1.1526   -1.9886    0.0000 C   0  0
    1.1526   -0.6586    0.0000 C   0  0
    0.0000    0.0000    0.0000 O   0  0
  1  2  2  0
  1  6  1  0
  2  5  1  0
  3  4  1  0
  3  5  2  0
  4  6  2  0
  6  7  1  0
  7  8  2  0
M  END
> <Name>
Benzaldehyde

> <Substance ID>
661

> <Synonyms>
Almond artificial essential oil; artificial almond oil; Artificial Bitter Almond Oil; Artificial essential oil of almond; benzenecarbonal; benzenecarboxaldehyde; Benzenemethylal; Benzoic aldehyde; Ben
zoyl hydride; oil of bitter almond; Phenylmethanal.

> <CAS>
100-52-7

> <Reference>
NTP378

> <MolWeight>
106.12

> <Formula>
C7H6O

> <SMILES>
O=CC1=CC=CC=C1

> <TD50_Rat>
NP

> <TD50_Mouse>
1490

> <Canc>
3

> <SAL>
1

> <Rat_Male_Canc>
1

> <Rat_Female_Canc>
1

> <Mouse_Male_Canc>
3

> <Mouse_Female_Canc>
3

> <Rat_Male_NTP>
NE

> <Rat_Female_NTP>
NE

> <Mouse_Male_NTP>
SE

> <Mouse_Female_NTP>
SE

> <Status>
Carcinogen

> <New_Data>
true

> <iscarc>
1

$$$$
D-Carvone
  SciTegic06161615512D

 11 11  0  0  0  0            999 V2000
    3.9881   -2.2989    0.0000 C   0  0
    3.3149   -3.4547    0.0000 C   0  0
    1.9940   -3.4547    0.0000 C   0  0
    1.3209   -2.2989    0.0000 C   0  0
    1.9940   -1.1558    0.0000 C   0  0
    3.3149   -1.1558    0.0000 C   0  0
    3.9881    0.0000    0.0000 C   0  0
    1.3209    0.0000    0.0000 O   0  0
    1.3209   -4.6104    0.0000 C   0  0
    0.0000   -4.6104    0.0000 C   0  0
    1.9940   -5.7535    0.0000 C   0  0
  1  2  1  0
  1  6  2  0
  2  3  1  0
  3  4  1  0
  3  9  1  0
  4  5  1  0
  5  6  1  0
  5  8  2  0
  6  7  1  0
  9 10  1  0
  9 11  2  0
M  END
> <Name>
D-Carvone

> <Substance ID>
662

> <Synonyms>
(+)-(4S)-carvone; (+)-carvone; (+)-(S)-Carvone; 2-Methyl-5-(1-methylethenyl)-2-cyclohexene-1-one; D-1-methyl-4-isopropenyl-6-cyclohexen-2-one; D-p-mentha-6,8,(9)-dien-2-one; (S)-(+)-p-mentha-6,8-dien-
2-one; (S)-(+)-Carvone; (S)-2-methyl-5-(1-methylethenyl)-2-Cyclohexen-1-one; (S)-carvone.

> <CAS>
2244-16-8

> <Reference>
NTP381

> <MolWeight>
150.22

> <Formula>
C10H14O

> <SMILES>
CC(=C)[C@@H]1CC(=O)C(=CC1)C

> <TD50_Rat>
ND

> <TD50_Mouse>
NP

> <Canc>
1

> <SAL>
1

> <Rat_Male_Canc>
ND

> <Rat_Female_Canc>
ND

> <Mouse_Male_Canc>
1

> <Mouse_Female_Canc>
1

> <Rat_Male_NTP>
ND

> <Rat_Female_NTP>
ND

> <Mouse_Male_NTP>
NE

> <Mouse_Female_NTP>
NE

> <Status>
Non-Carcinogen

> <New_Data>
true

> <iscarc>
0

$$$$
Nalidixic acid
  SciTegic06161615512D

 17 18  0  0  0  0            999 V2000
    1.1516   -0.6707    0.0000 C   0  0
    2.3032    0.0000    0.0000 C   0  0
    3.4549   -0.6707    0.0000 C   0  0
    1.1516   -1.9995    0.0000 N   0  0
    2.3032   -2.6576    0.0000 C   0  0
    3.4549   -1.9995    0.0000 C   0  0
    4.6065   -2.6576    0.0000 C   0  0
    4.6065   -3.9864    0.0000 C   0  0
    3.4549   -4.6571    0.0000 C   0  0
    2.3032   -3.9864    0.0000 N   0  0
    0.0000    0.0000    0.0000 C   0  0
    1.1516   -4.6571    0.0000 C   0  0
    1.1516   -5.9859    0.0000 C   0  0
    5.7581   -4.6571    0.0000 C   0  0
    6.9097   -3.9864    0.0000 O   0  0
    5.7581   -5.9859    0.0000 O   0  0
    5.7581   -1.9995    0.0000 O   0  0
  1  2  2  0
  1  4  1  0
  1 11  1  0
  2  3  1  0
  3  6  2  0
  4  5  2  0
  5  6  1  0
  5 10  1  0
  6  7  1  0
  7  8  1  0
  7 17  2  0
  8  9  2  0
  8 14  1  0
  9 10  1  0
 10 12  1  0
 12 13  1  0
 14 15  1  0
 14 16  2  0
M  END
> <Name>
Nalidixic acid

> <Substance ID>
663

> <Synonyms>
1,4-dihydro-1-ethyl-7-methyl-4-oxo-1,8-naphthyridine-3-carboxylic acid; 1-Ethyl-1,4-dihydro-7-methyl-4-oxo-1,8-naphthyridine-3-carboxylic acid; 1-ethyl-7-methyl-1,4-dihydro-1,8-naphthyridin-4-one-3-ca
rboxylic acid; 1-ethyl-7-methyl-4-oxo-1,4-dihydro-1,8-naphthyridine-3-carboxylic acid; naladixic acid; nalidic acid; nalidixin; NegGRAM; negram; urisal; wil 18,320; wintomylon.

> <CAS>
389-08-2

> <Reference>
NTP368

> <MolWeight>
232.24

> <Formula>
C12H12N2O3

> <SMILES>
O=C1C2=C(N=C(C=C2)C)N(C=C1C(=O)O)CC

> <TD50_Rat>
201

> <TD50_Mouse>
NP

> <Canc>
3

> <SAL>
1

> <Rat_Male_Canc>
3

> <Rat_Female_Canc>
3

> <Mouse_Male_Canc>
2

> <Mouse_Female_Canc>
1

> <Rat_Male_NTP>
CE

> <Rat_Female_NTP>
CE

> <Mouse_Male_NTP>
EE

> <Mouse_Female_NTP>
NE

> <Status>
Carcinogen

> <New_Data>
true

> <iscarc>
1

$$$$
alpha-Methylbenzyl alcohol
  SciTegic06161615512D

  9  9  0  0  1  0            999 V2000
    1.1476   -4.0006    0.0000 C   0  0
    0.0000   -3.3312    0.0000 C   0  0
    1.1476   -1.3389    0.0000 C   0  0
    2.2952   -1.9923    0.0000 C   0  0
    0.0000   -1.9923    0.0000 C   0  0
    2.2952   -3.3312    0.0000 C   0  0
    3.4587   -1.3389    0.0000 C   0  0  2  0  0  0
    4.6063   -1.9923    0.0000 C   0  0
    3.4587    0.0000    0.0000 O   0  0
  1  2  2  0
  1  6  1  0
  2  5  1  0
  3  4  1  0
  3  5  2  0
  4  6  2  0
  4  7  1  0
  7  8  1  0
  7  9  1  1
M  END
> <Name>
alpha-Methylbenzyl alcohol

> <Substance ID>
665

> <Synonyms>
1-phenylethan-1-ol; 1-Phenyl ethyl alcohol; alpha-methyl-benzenemethanol; alpha-phenylethyl alcohol; beta-Hydroxyethylbenzene; beta-Phenethyl Alcohol; DL-sec-Phenethyl alcohol; methylphenylcarbinol; m
ethyl phenyl methanol; phenylmethylcarbinol; (S)-1-Phenylethyl alcohol; (S)-1-Phenylethanol; sec-phenethyl alcohol; Styralyl alcohol; styrallyl alcohol.

> <CAS>
98-85-1

> <Reference>
NTP369

> <MolWeight>
122.17

> <Formula>
C8H10O

> <SMILES>
C1=CC=C([C@@H](O)(C))C=C1

> <TD50_Rat>
458

> <TD50_Mouse>
NP

> <Canc>
3

> <SAL>
1

> <Rat_Male_Canc>
3

> <Rat_Female_Canc>
1

> <Mouse_Male_Canc>
1

> <Mouse_Female_Canc>
1

> <Rat_Male_NTP>
SE

> <Rat_Female_NTP>
NE

> <Mouse_Male_NTP>
NE

> <Mouse_Female_NTP>
NE

> <Status>
Non-Carcinogen

> <New_Data>
true

> <iscarc>
0

$$$$
Methylphenidate Hydrochloride
  SciTegic06161615512D

 17 18  0  0  1  0            999 V2000
    3.4481   -2.6617    0.0000 C   0  0  2  0  0  0
    4.5975   -1.9963    0.0000 C   0  0
    3.4481   -3.9926    0.0000 C   0  0
    2.2988   -1.9963    0.0000 C   0  0  2  0  0  0
    5.7671   -2.6617    0.0000 O   0  0
    4.5975   -0.6654    0.0000 O   0  0
    4.5975   -4.6580    0.0000 C   0  0
    2.2988   -4.6580    0.0000 C   0  0
    1.1494   -2.6617    0.0000 C   0  0
    2.2988   -0.6654    0.0000 N   0  0
    6.9165   -1.9963    0.0000 C   0  0
    4.5975   -5.9889    0.0000 C   0  0
    2.2988   -5.9889    0.0000 C   0  0
    0.0000   -1.9963    0.0000 C   0  0
    1.1494    0.0000    0.0000 C   0  0
    3.4481   -6.6543    0.0000 C   0  0
    0.0000   -0.6654    0.0000 C   0  0
  1  2  1  0
  1  3  1  0
  1  4  1  6
  2  5  1  1
  2  6  2  0
  3  7  2  0
  3  8  1  0
  4  9  1  6
  4 10  1  0
  5 11  1  0
  7 12  1  0
  8 13  2  0
  9 14  1  6
 10 15  1  6
 12 16  2  0
 13 16  1  0
 14 17  1  0
 15 17  1  6
M  END
> <Name>
Methylphenidate Hydrochloride

> <Substance ID>
666

> <Synonyms>
alpha-phenyl-2-piperidineacetic acid methyl ester hydrochloride; centedrin; methyl alpha-phenyl-2-piperidine-acetate hydrochloride; methylphenidylacetate hydrochloride; PMS-Methylphenidate; Ritalin hy
drochloride.

> <CAS>
298-59-9

> <Reference>
NTP439

> <MolWeight>
269.81

> <Formula>
C14H19NO2

> <SMILES>
O=C(O[C@@H3])[C@H](c1ccccc1)[C@@H]2[N@@H][C@@H2][C@H2][C@H2][C@@H2]2.[Cl]

> <TD50_Rat>
NP

> <TD50_Mouse>
100

> <Canc>
3

> <SAL>
1

> <Rat_Male_Canc>
1

> <Rat_Female_Canc>
1

> <Mouse_Male_Canc>
3

> <Mouse_Female_Canc>
3

> <Rat_Male_NTP>
NE

> <Rat_Female_NTP>
NE

> <Mouse_Male_NTP>
SE

> <Mouse_Female_NTP>
SE

> <Status>
Carcinogen

> <New_Data>
true

> <iscarc>
1

$$$$
Nitromethane
  SciTegic06161615512D

  4  3  0  0  0  0            999 V2000
    0.0000   -1.9974    0.0000 C   0  0
    1.1504   -1.3274    0.0000 N   0  3
    2.3008   -1.9974    0.0000 O   0  5
    1.1504    0.0000    0.0000 O   0  0
  1  2  1  0
  2  3  1  0
  2  4  2  0
M  CHG  2   2   1   3  -1
M  END
> <Name>
Nitromethane

> <Substance ID>
667

> <Synonyms>
Nitrocarbol; NM.

> <CAS>
75-52-5

> <Reference>
NTP461

> <MolWeight>
61.04

> <Formula>
CH3NO2

> <SMILES>
N(=O)(=O)C

> <TD50_Rat>
ND

> <TD50_Mouse>
ND

> <Canc>
3

> <SAL>
1

> <Rat_Male_Canc>
1

> <Rat_Female_Canc>
3

> <Mouse_Male_Canc>
3

> <Mouse_Female_Canc>
3

> <Rat_Male_NTP>
NE

> <Rat_Female_NTP>
CE

> <Mouse_Male_NTP>
CE

> <Mouse_Female_NTP>
CE

> <Status>
Carcinogen

> <New_Data>
true

> <iscarc>
1

$$$$
Benzethonium Chloride
  SciTegic06161615512D

 30 31  0  0  0  0            999 V2000
   15.6043   -3.3235    0.0000 C   0  0
   16.7539   -2.6633    0.0000 C   0  0
   17.9034   -4.6551    0.0000 C   0  0
   16.7539   -5.3266    0.0000 C   0  0
   17.9034   -3.3235    0.0000 C   0  0
   15.6043   -4.6551    0.0000 C   0  0
   13.1231   -1.3317    0.0000 C   0  0
   12.4516   -2.4812    0.0000 C   0  0
   11.1199   -2.4812    0.0000 O   0  0
   10.4598   -3.6421    0.0000 C   0  0
    9.1281   -3.6421    0.0000 C   0  0
    8.4680   -4.7917    0.0000 O   0  0
    7.1363   -4.7917    0.0000 C   0  0
    4.4730   -4.7917    0.0000 C   0  0
    5.1445   -3.6421    0.0000 C   0  0
    6.4762   -5.9413    0.0000 C   0  0
    6.4762   -3.6421    0.0000 C   0  0
    5.1445   -5.9413    0.0000 C   0  0
    0.4894   -2.4812    0.0000 C   0  0
    1.1609   -3.6421    0.0000 C   0  0
    1.8211   -4.7917    0.0000 C   0  0
    3.1527   -4.7917    0.0000 C   0  0
    2.3105   -2.9706    0.0000 C   0  0
    0.0000   -4.3023    0.0000 C   0  0
    3.1527   -3.4600    0.0000 C   0  0
    3.1527   -6.1120    0.0000 C   0  0
   14.4434   -1.3317    0.0000 N   0  3
   14.4434    0.0000    0.0000 C   0  0
   15.7750   -1.3317    0.0000 C   0  0
   14.4434   -2.6633    0.0000 C   0  0
  1  2  2  0
  1  6  1  0
  1 30  1  0
  2  5  1  0
  3  4  1  0
  3  5  2  0
  4  6  2  0
  7  8  1  0
  7 27  1  0
  8  9  1  0
  9 10  1  0
 10 11  1  0
 11 12  1  0
 12 13  1  0
 13 16  1  0
 13 17  2  0
 14 15  2  0
 14 18  1  0
 14 22  1  0
 15 17  1  0
 16 18  2  0
 19 20  1  0
 20 21  1  0
 20 23  1  0
 20 24  1  0
 21 22  1  0
 22 25  1  0
 22 26  1  0
 27 28  1  0
 27 29  1  0
 27 30  1  0
M  CHG  1  27   1
M  END
> <Name>
Benzethonium Chloride

> <Substance ID>
668

> <Synonyms>
p-diisobutyl phenoxyethoxyethyl dimethyl benzylammonium chloride; p-tert-octylphenoxyethoxyethyldimethylbenzylammonium chloride; anti-germ 77; antiseptol; benzathonium chloride; benzethonium chloride
1622; Benzyldimethyl[2-[2-[4-(1,1,3,3-tetramethylbutyl)phenoxy]ethoxy]ethyl]ammonium chloride; benzyldimethyl-(p-(1,1,3,3-tetramethylbutyl)phenoxyethoxyethyl) ammonium chloride; Diapp; diisobutylpheno
xyethoxyethyl dimethyl benzyl ammonium chloride; disilyn; BZT; hyamine; hyamine 1622; N,N-dimethyl-N-(2-(2-(4-(1,1,3,3-tetramethylbutyl)phenoxy)ethoxy)ethyl)-benzenemethanaminium chloride; Octylphenox
yethoxyethyl dimethyl benzyl ammonium chloride; phemeride; phemerol; phemerol chloride; phemersol chloride; phemithyn; polymine d; quatrachlor; solamin; Solanine.

> <CAS>
121-54-0

> <Reference>
NTP438

> <MolWeight>
448.09

> <Formula>
C27H42NO2

> <SMILES>
O(c1ccc(cc1)C(C)(C)CC(C)(C)C)CCOCC[N+](Cc2ccccc2)(C)C.[Cl-]

> <TD50_Rat>
NP

> <TD50_Mouse>
NP

> <Canc>
1

> <SAL>
1

> <Rat_Male_Canc>
1

> <Rat_Female_Canc>
1

> <Mouse_Male_Canc>
1

> <Mouse_Female_Canc>
1

> <Rat_Male_NTP>
NE

> <Rat_Female_NTP>
NE

> <Mouse_Male_NTP>
NE

> <Mouse_Female_NTP>
NE

> <Status>
Non-Carcinogen

> <New_Data>
true

> <iscarc>
0

$$$$
4,4'-Diamino-2,2'-stilbenedisulfonic acid
  SciTegic06161615512D

 24 25  0  0  0  0            999 V2000
    2.3007   -3.1490    0.0000 C   0  0
    3.4574   -3.8173    0.0000 C   0  0
    4.6013   -3.1490    0.0000 C   0  0
    5.7581   -3.8173    0.0000 C   0  0
    6.9148   -3.1490    0.0000 C   0  0
    6.9148   -1.8123    0.0000 C   0  0
    5.7581   -1.1568    0.0000 S   0  0
    6.4264    0.0000    0.0000 O   0  0
    4.6013   -0.4884    0.0000 O   0  0
    5.0897   -2.3007    0.0000 O   0  5
    8.0587   -1.1568    0.0000 C   0  0
    9.2155   -1.8123    0.0000 C   0  0
    9.2155   -3.1490    0.0000 C   0  0
    8.0587   -3.8173    0.0000 C   0  0
   10.3594   -1.1568    0.0000 N   0  0
    3.4574   -5.1411    0.0000 C   0  0
    2.3007   -5.8095    0.0000 C   0  0
    1.1568   -5.1411    0.0000 C   0  0
    1.1568   -3.8173    0.0000 C   0  0
    0.0000   -5.8095    0.0000 N   0  0
    2.3007   -1.8123    0.0000 S   0  0
    3.6374   -1.8123    0.0000 O   0  0
    2.3007   -0.4884    0.0000 O   0  0
    0.9768   -1.8123    0.0000 O   0  5
  1  2  2  0
  1 19  1  0
  1 21  1  0
  2  3  1  0
  2 16  1  0
  3  4  2  0
  4  5  1  0
  5  6  2  0
  5 14  1  0
  6  7  1  0
  6 11  1  0
  7  8  2  0
  7  9  2  0
  7 10  1  0
 11 12  2  0
 12 13  1  0
 12 15  1  0
 13 14  2  0
 16 17  2  0
 17 18  1  0
 18 19  2  0
 18 20  1  0
 21 22  2  0
 21 23  2  0
 21 24  1  0
M  CHG  2  10  -1  24  -1
M  END
> <Name>
4,4'-Diamino-2,2'-stilbenedisulfonic acid

> <Substance ID>
669

> <Synonyms>
2,2'-(1,2-Ethenediyl)bis[5-aminobenzenesulfonic acid] disodium salt; 4,4'-Diamino-2,2'-Stilbenedisulfonic Acid Disodium Salt; disodium disodium 4,4'-diaminostilbene-2,2'-disulfonate.

> <CAS>
7336-20-1

> <Reference>
NTP412

> <MolWeight>
414.37

> <Formula>
C14H12N2O6S2

> <SMILES>
[Na+].C1(=C(/C=C/C2=C(S(=O)(=O)[O-])C=C(C=C2)N)C=CC(=C1)N)S(=O)(=O)[O-].[Na+]

> <TD50_Rat>
NP

> <TD50_Mouse>
NP

> <Canc>
1

> <SAL>
1

> <Rat_Male_Canc>
1

> <Rat_Female_Canc>
1

> <Mouse_Male_Canc>
1

> <Mouse_Female_Canc>
1

> <Rat_Male_NTP>
NE

> <Rat_Female_NTP>
NE

> <Mouse_Male_NTP>
NE

> <Mouse_Female_NTP>
NE

> <Status>
Non-Carcinogen

> <New_Data>
true

> <iscarc>
0

$$$$
Phenolphthalein
  SciTegic06161615512D

 24 27  0  0  0  0            999 V2000
    4.5934   -8.5062    0.0000 C   0  0
    3.4417   -9.1736    0.0000 C   0  0
    2.2901   -8.5062    0.0000 C   0  0
    4.5934   -7.1845    0.0000 C   0  0
    3.4417   -6.5171    0.0000 C   0  0
    2.2901   -7.1845    0.0000 C   0  0
    1.3086   -6.2815    0.0000 C   0  0
    1.8452   -5.0776    0.0000 O   0  0
    3.1669   -5.2084    0.0000 C   0  0
    3.4417   -3.9129    0.0000 C   0  0
    4.4363   -4.8027    0.0000 C   0  0
    2.4603   -3.0230    0.0000 C   0  0
    4.0045   -1.3086    0.0000 C   0  0
    4.9859   -2.1985    0.0000 C   0  0
    2.7351   -1.7143    0.0000 C   0  0
    4.7111   -3.4941    0.0000 C   0  0
    4.7111   -3.4941    0.0000 C   0  0
    6.9620   -3.9783    0.0000 C   0  0
    6.6872   -5.2738    0.0000 C   0  0
    5.9805   -3.0884    0.0000 C   0  0
    5.4309   -5.6926    0.0000 C   0  0
    4.2793    0.0000    0.0000 O   0  0
    8.2314   -3.5726    0.0000 O   0  0
    0.0000   -6.5694    0.0000 O   0  0
  1  2  2  0
  1  4  1  0
  2  3  1  0
  3  6  2  0
  4  5  2  0
  5  6  1  0
  5  9  1  0
  6  7  1  0
  7  8  1  0
  7 24  2  0
  8  9  1  0
  9 10  1  0
  9 11  1  0
 10 12  2  0
 10 16  1  0
 11 17  2  0
 11 21  1  0
 12 15  1  0
 13 14  1  0
 13 15  2  0
 13 22  1  0
 14 16  2  0
 17 20  1  0
 18 19  1  0
 18 20  2  0
 18 23  1  0
 19 21  2  0
M  END
> <Name>
Phenolphthalein

> <Substance ID>
672

> <Synonyms>
2-[Bis (4-hydroxyphenyl)methyl]benzoic acid; 3,3-bis(4-hydroxyphenyl)-1(3H)-isobenzofuranone; 3,3-bis(p-hydroxyphenyl)phthalide; Alophen; Espotabs; Ex-Lax; Feen-a-mint; feen-a-mint gum; Figsen; Laxett
es; Phenolax.

> <CAS>
77-09-8

> <Reference>
NTP465

> <MolWeight>
318.33

> <Formula>
C20H14O4

> <SMILES>
O=C1OC(C2=C1C=CC=C2)(C3=CC=C(C=C3)O)C4=CC=C(C=C4)O

> <TD50_Rat>
902

> <TD50_Mouse>
1170

> <Canc>
3

> <SAL>
1

> <Rat_Male_Canc>
3

> <Rat_Female_Canc>
3

> <Mouse_Male_Canc>
3

> <Mouse_Female_Canc>
3

> <Rat_Male_NTP>
CE

> <Rat_Female_NTP>
SE

> <Mouse_Male_NTP>
CE

> <Mouse_Female_NTP>
CE

> <Status>
Carcinogen

> <New_Data>
true

> <iscarc>
1

$$$$
2-tert-Butylhydroquinone
  SciTegic06161615512D

 12 12  0  0  0  0            999 V2000
    2.3041   -3.8189    0.0000 C   0  0
    1.1457   -3.1570    0.0000 C   0  0
    2.3041   -1.1584    0.0000 C   0  0
    3.4498   -1.8204    0.0000 C   0  0
    1.1457   -1.8204    0.0000 C   0  0
    3.4498   -3.1570    0.0000 C   0  0
    4.6082   -3.8189    0.0000 O   0  0
    0.0000   -1.1584    0.0000 O   0  0
    4.6082   -1.1584    0.0000 C   0  0
    3.9462    0.0000    0.0000 C   0  0
    5.7538   -0.4965    0.0000 C   0  0
    5.2701   -2.3041    0.0000 C   0  0
  1  2  2  0
  1  6  1  0
  2  5  1  0
  3  4  1  0
  3  5  2  0
  4  6  2  0
  4  9  1  0
  5  8  1  0
  6  7  1  0
  9 10  1  0
  9 11  1  0
  9 12  1  0
M  END
> <Name>
2-tert-Butylhydroquinone

> <Substance ID>
677

> <Synonyms>
1,4-Benzenediol, 2-(1,1-dimethylethyl)-; Mono-tert-butylhydroquinone; TBHQ; tert-Butylhydroquinone.

> <CAS>
1948-33-0

> <Reference>
NTP459

> <MolWeight>
166.22

> <Formula>
C10H14O2

> <SMILES>
Oc(c(cc(O)c1)C(C)(C)C)c1

> <TD50_Rat>
NP

> <TD50_Mouse>
NP

> <Canc>
1

> <SAL>
1

> <Rat_Male_Canc>
1

> <Rat_Female_Canc>
1

> <Mouse_Male_Canc>
1

> <Mouse_Female_Canc>
1

> <Rat_Male_NTP>
NE

> <Rat_Female_NTP>
NE

> <Mouse_Male_NTP>
NE

> <Mouse_Female_NTP>
NE

> <Status>
Non-Carcinogen

> <New_Data>
true

> <iscarc>
0

$$$$
p-Nitrophenol
  SciTegic06161615512D

 10 10  0  0  0  0            999 V2000
    2.3035   -1.9997    0.0000 C   0  0
    2.3035   -3.3286    0.0000 C   0  0
    0.0000   -3.3286    0.0000 C   0  0
    0.0000   -1.9997    0.0000 C   0  0
    1.1517   -3.9868    0.0000 C   0  0
    1.1517   -1.3289    0.0000 C   0  0
    1.1517    0.0000    0.0000 O   0  0
    1.1517   -5.3157    0.0000 N   0  3
    0.0000   -5.9865    0.0000 O   0  5
    2.3035   -5.9865    0.0000 O   0  0
  1  2  2  0
  1  6  1  0
  2  5  1  0
  3  4  1  0
  3  5  2  0
  4  6  2  0
  5  8  1  0
  6  7  1  0
  8  9  1  0
  8 10  2  0
M  CHG  2   8   1   9  -1
M  END
> <Name>
p-Nitrophenol

> <Substance ID>
679

> <Synonyms>
4-Hydroxynitrobenzene; 4-Nitrophenol; 4-Notrophenol; mononitrophenol; Niphen; PNP.

> <CAS>
100-02-7

> <Reference>
NTP417

> <MolWeight>
139.11

> <Formula>
C6H5NO3

> <SMILES>
N(=O)(=O)c(ccc(O)c1)c1

> <TD50_Rat>
ND

> <TD50_Mouse>
NP

> <Canc>
1

> <SAL>
1

> <Rat_Male_Canc>
ND

> <Rat_Female_Canc>
ND

> <Mouse_Male_Canc>
1

> <Mouse_Female_Canc>
1

> <Rat_Male_NTP>
ND

> <Rat_Female_NTP>
ND

> <Mouse_Male_NTP>
NE

> <Mouse_Female_NTP>
NE

> <Status>
Non-Carcinogen

> <New_Data>
true

> <iscarc>
0

$$$$
HC Yellow No. 4
  SciTegic06161615512D

 17 17  0  0  1  0            999 V2000
    2.3106   -1.9913    0.0000 C   0  0
    3.4565   -1.3338    0.0000 C   0  0
    4.6212   -1.9913    0.0000 C   0  0
    4.6212   -3.3250    0.0000 C   0  0
    3.4565   -3.9825    0.0000 C   0  0
    2.3106   -3.3250    0.0000 C   0  0
    3.4565   -5.3163    0.0000 O   0  0
    1.1459   -1.3338    0.0000 N   0  3
    1.1459    0.0000    0.0000 O   0  5
    0.0000   -1.9913    0.0000 O   0  0
    5.7672   -3.9825    0.0000 N   0  0
    6.9131   -3.3250    0.0000 C   0  0
    5.7672   -5.3163    0.0000 C   0  0
    6.9131   -5.9926    0.0000 C   0  0
    6.9131   -7.3264    0.0000 O   0  0
    8.0778   -3.9825    0.0000 C   0  0
    9.2237   -3.3250    0.0000 O   0  0
  1  2  2  0
  1  6  1  0
  1  8  1  0
  2  3  1  0
  3  4  2  0
  4  5  1  0
  4 11  1  0
  5  6  2  0
  5  7  1  0
  8  9  1  0
  8 10  2  0
 11 12  1  6
 11 13  1  1
 12 16  1  0
 13 14  1  1
 14 15  1  1
 16 17  1  6
M  CHG  2   8   1   9  -1
M  END
> <Name>
HC Yellow No. 4

> <Substance ID>
682

> <Synonyms>
2-(bis(2-hydroxyethyl)amino)-5-nitrophenol; HC yellow 4; N-o-di(2-hydroxyethyl)-2-amino-5-nitrophenol.

> <CAS>
59820-43-8

> <Reference>
NTP419

> <MolWeight>
242.23

> <Formula>
C10H14N2O5

> <SMILES>
C1(=CC=C(C(=C1)O)N(CCO)CCO)[N+]([O-])=O

> <TD50_Rat>
NP

> <TD50_Mouse>
NP

> <Canc>
2

> <SAL>
3

> <Rat_Male_Canc>
2

> <Rat_Female_Canc>
1

> <Mouse_Male_Canc>
1

> <Mouse_Female_Canc>
1

> <Rat_Male_NTP>
EE

> <Rat_Female_NTP>
NE

> <Mouse_Male_NTP>
NE

> <Mouse_Female_NTP>
NE

> <Status>
Non-Carcinogen

> <New_Data>
true

> <iscarc>
0

$$$$
1-trans-delta(sup 9)-tetrahydrocannabinol
  SciTegic06161615512D

 23 25  0  0  1  0            999 V2000
    1.3407    0.0000    0.0000 C   0  0
    1.3407   -1.3187    0.0000 C   0  0
    0.1758   -2.0001    0.0000 C   0  0
    0.1758   -3.3188    0.0000 C   0  0
    1.3407   -3.9782    0.0000 C   0  0  1  0  0  0
    2.4836   -3.3188    0.0000 C   0  0  2  0  0  0
    2.4836   -2.0001    0.0000 C   0  0
    1.3407   -5.2969    0.0000 C   0  0  2  0  0  0
    2.4836   -5.9782    0.0000 O   0  0
    3.6265   -5.2969    0.0000 C   0  0
    3.6265   -3.9782    0.0000 C   0  0
    0.6594   -6.4618    0.0000 C   0  0
    0.0000   -5.2969    0.0000 C   0  0
    4.7694   -5.9782    0.0000 C   0  0
    5.9343   -5.2969    0.0000 C   0  0
    5.9343   -3.9782    0.0000 C   0  0
    4.7694   -3.3188    0.0000 C   0  0
    7.0772   -5.9782    0.0000 C   0  0
    8.2201   -5.2969    0.0000 C   0  0
    9.3850   -5.9782    0.0000 C   0  0
   10.5279   -5.2969    0.0000 C   0  0
   11.6708   -5.9782    0.0000 C   0  0
    4.7694   -2.0001    0.0000 O   0  0
  1  2  1  1
  2  3  1  1
  2  7  2  0
  3  4  1  1
  4  5  1  0
  5  6  1  0
  5  8  1  1
  6  7  1  6
  6 11  1  0
  8  9  1  0
  8 12  1  0
  8 13  1  1
  9 10  1  0
 10 11  2  0
 10 14  1  0
 11 17  1  0
 14 15  2  0
 15 16  1  0
 15 18  1  0
 16 17  2  0
 17 23  1  0
 18 19  1  6
 19 20  1  0
 20 21  1  6
 21 22  1  0
M  END
> <Name>
1-trans-delta(sup 9)-tetrahydrocannabinol

> <Substance ID>
684

> <Synonyms>
1-trans-D9-Tetrahydrocannabinol; 3-pentyl-6,6,9-trimethyl-6a,7,8,10a-tetrahydro-6H-dibenzo[b,d]pyran-1-ol; 6,6,9-trimethyl-3-pentyl-6a,7,8,10a-tetrahydro-6H-dibenzo[b,d]pyran-1-ol; 6H-Dibenzo; 6H-Dibe
nzo[b,d]pyran-1-ol,6a,7,8,10a-tetrahydro-6,6,9-trimethyl-3-pentyl-, (6aR-trans)-; 9-delta-Tetrahydrocannabinol; abbott 40566; Cannabis resin; delta9-Tetrahydrocannabinol; delta-9-THC; Deltanyne; Drona
binol; delta(sup 1)-thc; delta(sup 9)-tetrahydrocannabinol; delta(sup 9)-thc; delta-THC; Ganja; Hashish; L-delta(sup 1)-tetrahydrocannabinol; Marinol; SP 104; Tetrahydro-6,6,9-trimethyl-3-pentyl-6H-di
benzo[b,d]pyran-1-ol; tetrahydrocannabinol; THC; THC-delta-9; trans-delta-9-Tetrahydrocannabinol; trans-tetrahydrocannabinol.

> <CAS>
1972-08-3

> <Reference>
NTP446

> <MolWeight>
314.47

> <Formula>
C21H30O2

> <SMILES>
Oc2cc(cc1O[C@@]([C@@H]3[C@H2][C@@H2]/C(=C\[C@H]3c12)[C@H3])([C@H3])[C@@H3])[C@H2][C@@H2][C@@H2][C@@H2][C@H3]

> <TD50_Rat>
NP

> <TD50_Mouse>
NP

> <Canc>
2

> <SAL>
1

> <Rat_Male_Canc>
1

> <Rat_Female_Canc>
1

> <Mouse_Male_Canc>
2

> <Mouse_Female_Canc>
2

> <Rat_Male_NTP>
NE

> <Rat_Female_NTP>
NE

> <Mouse_Male_NTP>
EE

> <Mouse_Female_NTP>
EE

> <Status>
Carcinogen

> <New_Data>
true

> <iscarc>
1

$$$$
NNK
  SciTegic06161615512D

 15 15  0  0  0  0            999 V2000
    3.4552   -2.6578    0.0000 C   0  0
    3.4552   -3.9868    0.0000 C   0  0
    2.3035   -1.9997    0.0000 C   0  0
    4.6069   -1.9997    0.0000 C   0  0
    2.3035   -4.6575    0.0000 C   0  0
    4.6069   -4.6575    0.0000 O   0  0
    2.3035   -0.6708    0.0000 C   0  0
    4.6069   -0.6708    0.0000 N   0  0
    2.3035   -5.9865    0.0000 C   0  0
    3.4552    0.0000    0.0000 C   0  0
    1.1517   -6.6446    0.0000 C   0  0
    1.1517   -7.9735    0.0000 N   0  0
    0.0000   -8.6443    0.0000 N   0  0
    2.3035   -8.6443    0.0000 C   0  0
    0.0000   -9.9732    0.0000 O   0  0
  1  2  1  0
  1  3  2  0
  1  4  1  0
  2  5  1  0
  2  6  2  0
  3  7  1  0
  4  8  2  0
  5  9  1  0
  7 10  2  0
  8 10  1  0
  9 11  1  0
 11 12  1  0
 12 13  1  0
 12 14  1  0
 13 15  2  0
M  END
> <Name>
NNK

> <Substance ID>
685

> <Synonyms>
3-(N-methyl-N-nitrosamino)propyl 3-pyridyl ketone; 4-(Methyl-nitrosamino)-1-(3-Pyridyl)-1-butanone; 4-(methylnitrosoamino)-1-(3-pyridinyl)-1-butanone; 4-(nitrosoamino-N-methyl)-1-(3-pyridyl)-1-butanon
e; 4-(N-Methyl-N-nitrosamino)-1-(3-pyridyl)-1-butanone; 4-(N-methyl-N-nitrosamino)-4-(3-pyridyl)-1-butanone; 4-(N-methyl-N-nitrosoamino)-4-(3-pyridyl)-1-butanone; 4-(N-Nitrosomethylamino)-1-(3-pyridyl
)-1-butanone; 4-(N-nitroso-N-methylamino)-1-(3-pyridyl)-1-butanone; ketone, 3-pyridyl 3-(N-methyl-N-nitrosamino)propyl; N-methyl-N-nitroso-4-oxo-4-(3-pyridyl)butylamine.

> <CAS>
64091-91-4

> <Reference>
NTP440

> <MolWeight>
207.23

> <Formula>
C10H13N3O2

> <SMILES>
O=C(C1=CC=CN=C1)CCCN(N=O)C

> <TD50_Rat>
NP

> <TD50_Mouse>
ND

> <Canc>
3

> <SAL>
3

> <Rat_Male_Canc>
1

> <Rat_Female_Canc>
1

> <Mouse_Male_Canc>
2

> <Mouse_Female_Canc>
3

> <Rat_Male_NTP>
NE

> <Rat_Female_NTP>
NE

> <Mouse_Male_NTP>
EE

> <Mouse_Female_NTP>
SE

> <Status>
Carcinogen

> <New_Data>
true

> <iscarc>
1

$$$$
Talc
  SciTegic06161615512D

  4  3  0  0  0  0            999 V2000
    2.1306   -0.6595    0.0000 Si  0  0
    3.2846    0.0000    0.0000 O   0  5
    0.9765    0.0000    0.0000 O   0  5
    2.1306   -1.9911    0.0000 O   0  0
  1  2  1  0
  1  3  1  0
  1  4  2  0
M  CHG  2   2  -1   3  -1
M  END
> <Name>
Talc

> <Substance ID>
686

> <Synonyms>
Fibrous Non-Tremolite Talc; french chalk; Hydrous magnesium silicate; Magnesium silicate talc; mineral graphite; non-asbestiform talc; non-fibrous talc; Silica,talc, non-asbestos form; steatite; Steat
ite talc; Talc (containing no asbestos); Talc (containing no asbestos fibres); Talc (Mg3H2(SiO3)4); Talc, non-asbestos form; talc, non-asbestos form, silica; Talcum.

> <CAS>
14807-96-6

> <Reference>
NTP421

> <MolWeight>
100.04

> <Formula>
MgO3Si

> <SMILES>
[Mg+2].[O-][Si]([O-])=O

> <TD50_Rat>
ND

> <TD50_Mouse>
NP

> <Canc>
3

> <SAL>
ND

> <Rat_Male_Canc>
3

> <Rat_Female_Canc>
3

> <Mouse_Male_Canc>
1

> <Mouse_Female_Canc>
1

> <Rat_Male_NTP>
SE

> <Rat_Female_NTP>
CE

> <Mouse_Male_NTP>
NE

> <Mouse_Female_NTP>
NE

> <Status>
Non-Carcinogen

> <RemovedSalts>
Mg+2

> <New_Data>
true

> <iscarc>
0

$$$$
Salicylazosulfapyridine
  SciTegic06161615512D

 28 30  0  0  0  0            999 V2000
    3.4575   -9.9673    0.0000 C   0  0
    3.4575  -11.2971    0.0000 S   0  0
    2.3050   -9.3087    0.0000 C   0  0
    4.6100   -9.3087    0.0000 C   0  0
    3.4575  -12.6269    0.0000 N   0  0
    2.1277  -11.2971    0.0000 O   0  0
    4.7873  -11.2971    0.0000 O   0  0
    2.3050   -7.9789    0.0000 C   0  0
    4.6100   -7.9789    0.0000 C   0  0
    2.3050  -13.2981    0.0000 C   0  0
    3.4575   -7.3076    0.0000 C   0  0
    2.3050  -14.6279    0.0000 C   0  0
    1.1525  -12.6269    0.0000 N   0  0
    3.4575   -5.9778    0.0000 N   0  0
    1.1525  -15.2865    0.0000 C   0  0
    0.0000  -13.2981    0.0000 C   0  0
    4.6100   -5.3192    0.0000 N   0  0
    0.0000  -14.6279    0.0000 C   0  0
    4.6100   -3.9894    0.0000 C   0  0
    3.4575   -3.3182    0.0000 C   0  0
    5.7625   -3.3182    0.0000 C   0  0
    3.4575   -1.9884    0.0000 C   0  0
    5.7625   -1.9884    0.0000 C   0  0
    4.6100   -1.3298    0.0000 C   0  0
    2.3050   -1.3298    0.0000 C   0  0
    4.6100    0.0000    0.0000 O   0  0
    1.1525   -1.9884    0.0000 O   0  0
    2.3050    0.0000    0.0000 O   0  0
  1  2  1  0
  1  3  2  0
  1  4  1  0
  2  5  1  0
  2  6  2  0
  2  7  2  0
  3  8  1  0
  4  9  2  0
  5 10  1  0
  8 11  2  0
  9 11  1  0
 10 12  1  0
 10 13  2  0
 11 14  1  0
 12 15  2  0
 13 16  1  0
 14 17  2  0
 15 18  1  0
 16 18  2  0
 17 19  1  0
 19 20  2  0
 19 21  1  0
 20 22  1  0
 21 23  2  0
 22 24  2  0
 22 25  1  0
 23 24  1  0
 24 26  1  0
 25 27  1  0
 25 28  2  0
M  END
> <Name>
Salicylazosulfapyridine

> <Substance ID>
688

> <Synonyms>
2-Hydroxy-5-[[4-[(2-pyridinylamino)sulfonyl]phenyl]azo]benzoic acid; 5-(para-(2-pyridylsulfamoyl)phenylazo)salicylic acid; accucol; asulfidine; azopyrin; Azulfidine; rorasul; salazopyrin; Salazopyrin
en-tabs; salazosulfapyridine; s.a.s.-500; SASP; sulcolon; Sulfasalazine; w-t sasp oral.

> <CAS>
599-79-1

> <Reference>
NTP457

> <MolWeight>
398.4

> <Formula>
C18H14N4O5S

> <SMILES>
OC(=O)c3cc(N=Nc1ccc(cc1)S(=O)(=O)Nc2ccccn2)ccc3O

> <TD50_Rat>
ND

> <TD50_Mouse>
ND

> <Canc>
3

> <SAL>
1

> <Rat_Male_Canc>
3

> <Rat_Female_Canc>
3

> <Mouse_Male_Canc>
3

> <Mouse_Female_Canc>
3

> <Rat_Male_NTP>
SE

> <Rat_Female_NTP>
SE

> <Mouse_Male_NTP>
CE

> <Mouse_Female_NTP>
CE

> <Status>
Carcinogen

> <CanonicalTautomer>
Yes

> <NumberOfTautomers>
4

> <New_Data>
true

> <iscarc>
1

$$$$
Tetranitromethane
  SciTegic06161615512D

 13 12  0  0  0  0            999 V2000
    1.9852   -1.9986    0.0000 C   0  0
    3.3132   -1.9986    0.0000 N   0  3
    0.6573   -1.9986    0.0000 N   0  3
    1.9852   -3.3266    0.0000 N   0  3
    1.9852   -0.6707    0.0000 N   0  3
    3.1388    0.0000    0.0000 O   0  5
    0.8316    0.0000    0.0000 O   0  0
    3.9839   -3.1522    0.0000 O   0  5
    3.9839   -0.8451    0.0000 O   0  0
    0.8316   -3.9839    0.0000 O   0  5
    3.1388   -3.9839    0.0000 O   0  0
    0.0000   -0.8451    0.0000 O   0  5
    0.0000   -3.1522    0.0000 O   0  0
  1  2  1  0
  1  3  1  0
  1  4  1  0
  1  5  1  0
  2  8  1  0
  2  9  2  0
  3 12  1  0
  3 13  2  0
  4 10  1  0
  4 11  2  0
  5  6  1  0
  5  7  2  0
M  CHG  8   2   1   3   1   4   1   5   1   6  -1   8  -1  10  -1  12  -1
M  END
> <Name>
Tetranitromethane

> <Substance ID>
689

> <Synonyms>
Tetan; TNM.

> <CAS>
509-14-8

> <Reference>
NTP386

> <MolWeight>
196.03

> <Formula>
CN4O8

> <SMILES>
O=[N+](C([N+](=O)[O-])([N+](=O)[O-])[N+](=O)[O-])[O-]

> <TD50_Rat>
0.447

> <TD50_Mouse>
1.19

> <Canc>
3

> <SAL>
3

> <Rat_Male_Canc>
3

> <Rat_Female_Canc>
3

> <Mouse_Male_Canc>
3

> <Mouse_Female_Canc>
3

> <Rat_Male_NTP>
CE

> <Rat_Female_NTP>
CE

> <Mouse_Male_NTP>
CE

> <Mouse_Female_NTP>
CE

> <Status>
Carcinogen

> <New_Data>
true

> <iscarc>
1

$$$$
Scopolamine hydrobromide trihydrate
  SciTegic06161615512D

 22 25  0  0  1  0            999 V2000
    6.0823   -3.6222    0.0000 C   0  0
    5.6125   -4.8831    0.0000 N   0  0
    7.0713   -5.7238    0.0000 C   0  0  2  0  0  0
    4.1537   -5.7238    0.0000 C   0  0  1  0  0  0
    6.2553   -6.7375    0.0000 C   0  0  1  0  0  0
    6.7746   -4.4504    0.0000 C   0  0
    4.9573   -6.7375    0.0000 C   0  0  2  0  0  0
    4.4381   -4.4504    0.0000 C   0  0
    5.6125   -7.8624    0.0000 O   0  0
    5.6125   -3.8941    0.0000 C   0  0  1  0  0  0
    5.6125   -2.5961    0.0000 O   0  0
    4.4875   -1.9532    0.0000 C   0  0
    3.3626   -2.5961    0.0000 C   0  0  1  0  0  0
    4.4875   -0.6552    0.0000 O   0  0
    3.3626   -3.8941    0.0000 C   0  0
    2.2376   -1.9532    0.0000 C   0  0
    2.2376   -4.5370    0.0000 O   0  0
    1.1126   -2.5961    0.0000 C   0  0
    2.2376   -0.6552    0.0000 C   0  0
    0.0000   -1.9532    0.0000 C   0  0
    1.1126    0.0000    0.0000 C   0  0
    0.0000   -0.6552    0.0000 C   0  0
  1  2  1  0
  2  3  1  1
  2  4  1  0
  3  5  1  0
  3  6  1  1
  4  7  1  0
  4  8  1  1
  5  7  1  0
  5  9  1  6
  6 10  1  0
  7  9  1  6
  8 10  1  1
 10 11  1  1
 11 12  1  1
 12 13  1  1
 12 14  2  0
 13 15  1  1
 13 16  1  1
 15 17  1  1
 16 18  2  0
 16 19  1  1
 18 20  1  1
 19 21  2  0
 20 22  2  0
 21 22  1  0
M  END
> <Name>
Scopolamine hydrobromide trihydrate

> <Substance ID>
690

> <Synonyms>
Atroscine hydrobromide trihydrate; hyoscine hydrobromide trihydrate; Scopolamine hydrobromidetrihydrate; scopolammonium bromide trihydrate.

> <CAS>
6533-68-2

> <Reference>
NTP445

> <MolWeight>
438.32

> <Formula>
C17H21NO4

> <SMILES>
O=C(O[C@@H]1[C@H2][C@@H]2[N@@]([C@H]([C@@H2]1)[C@H]3O[C@@H]23)[C@@H3])[C@H](c4ccccc4)[C@@H2]O.[Br].[O].[O].[O]

> <TD50_Rat>
NP

> <TD50_Mouse>
NP

> <Canc>
1

> <SAL>
1

> <Rat_Male_Canc>
1

> <Rat_Female_Canc>
1

> <Mouse_Male_Canc>
1

> <Mouse_Female_Canc>
1

> <Rat_Male_NTP>
NE

> <Rat_Female_NTP>
NE

> <Mouse_Male_NTP>
NE

> <Mouse_Female_NTP>
NE

> <Status>
Non-Carcinogen

> <New_Data>
true

> <iscarc>
0

$$$$
Sodium Xylenesulfonate
  SciTegic06161615512D

 12 12  0  0  0  0            999 V2000
    3.4557   -3.3164    0.0000 C   0  0
    3.4557   -4.6455    0.0000 C   0  0
    1.1519   -4.6455    0.0000 C   0  0
    1.1519   -3.3164    0.0000 C   0  0
    2.3038   -5.3164    0.0000 C   0  0
    2.3038   -2.6582    0.0000 C   0  0
    2.3038   -1.3291    0.0000 S   0  0
    2.3038    0.0000    0.0000 O   0  5
    0.9747   -1.3291    0.0000 O   0  0
    3.6329   -1.3291    0.0000 O   0  0
    4.6075   -5.3164    0.0000 C   0  0
    0.0000   -5.3164    0.0000 C   0  0
  1  2  2  0
  1  6  1  0
  2  5  1  0
  2 11  1  0
  3  4  1  0
  3  5  2  0
  3 12  1  0
  4  6  2  0
  6  7  1  0
  7  8  1  0
  7  9  2  0
  7 10  2  0
M  CHG  1   8  -1
M  END
> <Name>
Sodium Xylenesulfonate

> <Substance ID>
692

> <Synonyms>
Alkatrope sx-40; calsoft sxs 96; carsosulf sxs; conco sxs; cyclophil sxs30; eltesol sx 30; eltesol sx93; hydrotrope; naxonate; naxonate g; reworyl nxs40; richonate sxs; Sodium m-xylenesulfonate; sodiu
m dimethylbenzenesulfonate; dimethylbenzenesulfonic acid, sodium salt; xylenesulfonic acid, sodium salt; stepanate x; surco sxs; ultrawet 40sx; witconate sxs.

> <CAS>
1300-72-7

> <Reference>
NTP464

> <MolWeight>
208.21

> <Formula>
C8H9O3S

> <SMILES>
[Na+].[O-]S(=O)(=O)c1cc(C)cc(C)c1

> <TD50_Rat>
NP

> <TD50_Mouse>
NP

> <Canc>
1

> <SAL>
1

> <Rat_Male_Canc>
1

> <Rat_Female_Canc>
1

> <Mouse_Male_Canc>
1

> <Mouse_Female_Canc>
1

> <Rat_Male_NTP>
NE

> <Rat_Female_NTP>
NE

> <Mouse_Male_NTP>
NE

> <Mouse_Female_NTP>
NE

> <Status>
Non-Carcinogen

> <New_Data>
true

> <iscarc>
0

$$$$
Oxazepam
  SciTegic06161615512D

 20 22  0  0  1  0            999 V2000
    5.4066   -7.5139    0.0000 Cl  0  0
    5.5176   -6.1830    0.0000 C   0  0
    4.4085   -5.4344    0.0000 C   0  0
    6.7098   -5.6007    0.0000 C   0  0
    4.5194   -4.1035    0.0000 C   0  0
    6.8207   -4.2976    0.0000 C   0  0
    3.2994   -3.5213    0.0000 C   0  0
    5.7116   -3.5213    0.0000 C   0  0
    3.0222   -2.2458    0.0000 N   0  0
    2.2736   -4.3530    0.0000 C   0  0
    6.0166   -2.2458    0.0000 N   0  0
    3.8540   -1.1922    0.0000 C   0  0  1  0  0  0
    2.4676   -5.6839    0.0000 C   0  0
    1.0259   -3.8817    0.0000 C   0  0
    5.1848   -1.1922    0.0000 C   0  0
    3.2717    0.0000    0.0000 O   0  0
    1.4140   -6.5157    0.0000 C   0  0
    0.0000   -4.7135    0.0000 C   0  0
    5.7671    0.0000    0.0000 O   0  0
    0.1941   -6.0166    0.0000 C   0  0
  1  2  1  0
  2  3  2  0
  2  4  1  0
  3  5  1  0
  4  6  2  0
  5  7  1  0
  5  8  2  0
  6  8  1  0
  7  9  2  0
  7 10  1  6
  8 11  1  0
  9 12  1  1
 10 13  2  0
 10 14  1  6
 11 15  1  1
 12 15  1  6
 12 16  1  1
 13 17  1  6
 14 18  2  0
 15 19  2  0
 17 20  2  0
 18 20  1  0
M  END
> <Name>
Oxazepam

> <Substance ID>
693

> <Synonyms>
7-Chloro-1,3-dihydro-3-hydroxy-5-phenyl-2H-1,4-benzodiazepin-2-one; 7-chloro-3-hydroxy-5-phenyl-1,3-dihydro-2H-1,4-benzodiazepin-2-one; Noctazepam; notaral; nozepam; OX; Oxanid; Oxa-Puren; oxazepam; p
acienx; Praxiten; Propax; psicopax; psiquiwas; QUEN; Quilibrex; ro 5-6789; Rondar; Serax; Serenal; Serenid; serenid-d; Serepax; Seresta; serpax; Sigacalm; Sobril; tarchomin; Tazepam; tranquo-buscopan-
wirkstoff; Uskan; Vaben; wy-3498; Z10-TR; Zaxopam; Abboxampam; Adumbran; Alepam; ansiolisina; ansioxacepam; anxiolit; anxiolit retard; Aplakil; Apo-astress; Azutranguil; Azutranquil; Bonare; drimuel;
droxacepam; Durazepam; Enidrel; Hilong; Isodin; Lederpam; Limbial; Murelax; N-desmethyltemazepam; Nesontil.

> <CAS>
604-75-1

> <Reference>
NTP443 & NTP468

> <MolWeight>
286.72

> <Formula>
C15H11ClN2O2

> <SMILES>
Clc3cc\1c([N@H]C(=O)[C@H](O)/N=C/1c2ccccc2)cc3

> <TD50_Rat>
NP

> <TD50_Mouse>
35.8

> <Canc>
3

> <SAL>
1

> <Rat_Male_Canc>
2

> <Rat_Female_Canc>
1

> <Mouse_Male_Canc>
3

> <Mouse_Female_Canc>
3

> <Rat_Male_NTP>
EE

> <Rat_Female_NTP>
NE

> <Mouse_Male_NTP>
CE

> <Mouse_Female_NTP>
CE

> <Status>
Carcinogen

> <CanonicalTautomer>
Yes

> <NumberOfTautomers>
3

> <New_Data>
true

> <iscarc>
1

$$$$
Polybrominated biphenyl
  SciTegic06161615512D

 18 19  0  0  1  0            999 V2000
    2.6609   -2.3061    0.0000 C   0  0
    1.9893   -3.4592    0.0000 C   0  0
    0.6589   -3.4592    0.0000 C   0  0
    0.0000   -2.3061    0.0000 C   0  0
    0.6589   -1.1531    0.0000 C   0  0
    1.9893   -1.1531    0.0000 C   0  0
    6.6396   -2.3061    0.0000 C   0  0
    5.9807   -3.4592    0.0000 C   0  0
    4.6502   -3.4592    0.0000 C   0  0
    3.9787   -2.3061    0.0000 C   0  0
    4.6502   -1.1531    0.0000 C   0  0
    5.9807   -1.1531    0.0000 C   0  0
    0.0000   -4.6122    0.0000 Br  0  0
    0.0000    0.0000    0.0000 Br  0  0
    2.6609    0.0000    0.0000 Br  0  0
    3.9787    0.0000    0.0000 Br  0  0
    6.6396    0.0000    0.0000 Br  0  0
    6.6396   -4.6122    0.0000 Br  0  0
  1  2  2  0
  1  6  1  0
  1 10  1  0
  2  3  1  0
  3  4  2  0
  3 13  1  0
  4  5  1  0
  5  6  2  0
  5 14  1  0
  6 15  1  0
  7  8  2  0
  7 12  1  6
  8  9  1  0
  8 18  1  1
  9 10  2  0
 10 11  1  6
 11 12  2  0
 11 16  1  6
 12 17  1  6
M  END
> <Name>
Polybrominated biphenyl

> <Substance ID>
694

> <Synonyms>
brominated biphenyl; Firemaster FF-1; PBB; polybrominated biphenyl (ff-1); Polybrominated biphenyl mixture.

> <CAS>
67774-32-7

> <Reference>
NTP244 & NTP398

> <MolWeight>
Unspecified

> <Formula>
C12H4Br6

> <SMILES>
Unspecified

> <TD50_Rat>
0.322

> <TD50_Mouse>
0.332

> <Canc>
3

> <SAL>
ND

> <Rat_Male_Canc>
3

> <Rat_Female_Canc>
3

> <Mouse_Male_Canc>
3

> <Mouse_Female_Canc>
3

> <Rat_Male_NTP>
CE

> <Rat_Female_NTP>
CE

> <Mouse_Male_NTP>
CE

> <Mouse_Female_NTP>
CE

> <Status>
Carcinogen

> <New_Data>
true

> <iscarc>
1

$$$$
Curcumin
  SciTegic06161615512D

 27 28  0  0  0  0            999 V2000
    9.2139   -9.9733    0.0000 C   0  0
   10.3656   -9.3025    0.0000 C   0  0
    9.2139  -11.3022    0.0000 C   0  0
    8.0622   -9.3025    0.0000 C   0  0
   11.5174   -9.9733    0.0000 C   0  0
   10.3656  -11.9603    0.0000 C   0  0
    6.9104   -9.9733    0.0000 C   0  0
   11.5174  -11.3022    0.0000 C   0  0
   12.6691   -9.3025    0.0000 O   0  0
    5.7587   -9.3025    0.0000 C   0  0
   12.6691  -11.9603    0.0000 O   0  0
   12.6691   -7.9736    0.0000 C   0  0
    5.7587   -7.9736    0.0000 C   0  0
    4.6069   -9.9733    0.0000 O   0  0
    4.6069   -7.3154    0.0000 C   0  0
    4.6069   -5.9865    0.0000 C   0  0
    3.4552   -7.9736    0.0000 O   0  0
    3.4552   -5.3157    0.0000 C   0  0
    3.4552   -3.9868    0.0000 C   0  0
    2.3035   -3.3286    0.0000 C   0  0
    4.6069   -3.3286    0.0000 C   0  0
    2.3035   -1.9997    0.0000 C   0  0
    4.6069   -1.9997    0.0000 C   0  0
    3.4552   -1.3289    0.0000 C   0  0
    1.1517   -1.3289    0.0000 O   0  0
    3.4552    0.0000    0.0000 O   0  0
    0.0000   -1.9997    0.0000 C   0  0
  1  2  2  0
  1  3  1  0
  1  4  1  0
  2  5  1  0
  3  6  2  0
  4  7  2  0
  5  8  2  0
  5  9  1  0
  6  8  1  0
  7 10  1  0
  8 11  1  0
  9 12  1  0
 10 13  1  0
 10 14  2  0
 13 15  1  0
 15 16  1  0
 15 17  2  0
 16 18  2  0
 18 19  1  0
 19 20  2  0
 19 21  1  0
 20 22  1  0
 21 23  2  0
 22 24  2  0
 22 25  1  0
 23 24  1  0
 24 26  1  0
 25 27  1  0
M  END
> <Name>
Curcumin

> <Substance ID>
695

> <Synonyms>
1,6-Heptadiene-3,5-dione, 1,7-bis(4-hydroxy-3-methoxyphenyl)-, (E,E)-; 1,7-bis(4-hydroxy-3-methoxyphenyl)-1,6-heptadiene-3,5-dione; diferuloylmethane; C.I. 75300; C.I. natural yellow 3; curouma; E-100
; gelbwurz; Haidr; Halad; haldar; Halud; indian saffron; kachs haldi; merita earth; Natural Yellow 3; safra d'inde; souchet; terra merita; tumeric yellow; yellow ginger; yellow root; YO-KIN.

> <CAS>
458-37-7

> <Reference>
NTP427

> <MolWeight>
368.39

> <Formula>
C21H20O6

> <SMILES>
O=C(C=Cc(ccc(O)c1OC)c1)CC(=O)C=Cc(ccc(O)c2OC)c2

> <TD50_Rat>
NP

> <TD50_Mouse>
NP

> <Canc>
2

> <SAL>
1

> <Rat_Male_Canc>
1

> <Rat_Female_Canc>
2

> <Mouse_Male_Canc>
2

> <Mouse_Female_Canc>
2

> <Rat_Male_NTP>
NE

> <Rat_Female_NTP>
EE

> <Mouse_Male_NTP>
EE

> <Mouse_Female_NTP>
EE

> <Status>
Carcinogen

> <CanonicalTautomer>
Yes

> <NumberOfTautomers>
4

> <New_Data>
true

> <iscarc>
1

$$$$
Codeine
  SciTegic06161615512D

 22 26  0  0  0  0            999 V2000
    3.1789   -2.4346    0.0000 C   0  0
    3.0023   -1.1732    0.0000 C   0  0
    1.8418   -0.6938    0.0000 C   0  0
    0.8326   -1.4633    0.0000 C   0  0
    0.9966   -2.7122    0.0000 C   0  0
    2.1697   -3.2041    0.0000 C   0  0
    0.0000   -3.4817    0.0000 O   0  0
    5.4243   -2.9519    0.0000 C   0  0
    5.0333    0.0000    0.0000 C   0  0
    3.7844   -0.1640    0.0000 C   0  0
    4.1755   -3.2041    0.0000 C   0  0
    6.2569   -3.9106    0.0000 C   0  0
    5.8406   -5.1090    0.0000 C   0  0
    4.6044   -5.3487    0.0000 C   0  0
    4.1881   -6.5471    0.0000 O   0  0
    3.7718   -4.4026    0.0000 C   0  0
    2.5734   -4.4026    0.0000 O   0  0
    0.1640   -4.7432    0.0000 C   0  0
    6.0425   -0.7695    0.0000 N   0  0
    6.2065   -2.0310    0.0000 C   0  0
    5.4370   -3.0402    0.0000 C   0  0
    7.1400   -0.1388    0.0000 C   0  0
  1  2  2  0
  1  6  1  0
  1 11  1  0
  2  3  1  0
  2 10  1  0
  3  4  2  0
  4  5  1  0
  5  6  2  0
  5  7  1  0
  6 17  1  0
  7 18  1  0
  8  9  1  0
  8 11  1  0
  8 12  1  0
  9 10  1  0
  9 19  1  0
 11 16  1  0
 11 21  1  0
 12 13  2  0
 13 14  1  0
 14 15  1  0
 14 16  1  0
 16 17  1  0
 19 22  1  0
 19 20  1  0
 20 21  1  0
M  END
> <Name>
Codeine

> <Substance ID>
696

> <Synonyms>
3-o-methylmorphine monohydrate; 7,8-didehydro-4,5-alpha-epoxy-3-methoxy-17-methylmorphinan-6-alpha-ol; 7,8-didehydro-4,5-epoxy-3-methoxy-17-methyl-(5alpha, 6alpha)-morphinan 6-ol; 7,8-didehydro-4,5-ep
oxy-3-methoxy-17-methylmorphinan-6-ol; Actacode; Calcidrine; codicept; Codalgin Forte Codate; (-)-codeine; codeinum; coducept; Methylmorphine; metilmorfina; morphine-3-methyl ether; morphine monomethy
l ether; N-methyl norcodine; N-methylnorcodeine; Novahistine DH; Nucofed; Robitussin AC; Tussar-2; Tussi-organidin.

> <CAS>
76-57-3

> <Reference>
NTP455

> <MolWeight>
299.37

> <Formula>
C18H21NO3

> <SMILES>
O[C@@H]1C2[C@@]34C5=C(C=CC(=C5O2)OC)CC(C3C=C1)N(C)CC4

> <TD50_Rat>
NP

> <TD50_Mouse>
NP

> <Canc>
1

> <SAL>
1

> <Rat_Male_Canc>
1

> <Rat_Female_Canc>
1

> <Mouse_Male_Canc>
1

> <Mouse_Female_Canc>
1

> <Rat_Male_NTP>
NE

> <Rat_Female_NTP>
NE

> <Mouse_Male_NTP>
NE

> <Mouse_Female_NTP>
NE

> <Status>
Non-Carcinogen

> <New_Data>
true

> <iscarc>
0

$$$$
Chlorinated Water
  SciTegic06161615512D

  2  1  0  0  0  0            999 V2000
    0.0000   -1.3300    0.0000 Cl  0  0
    0.0000    0.0000    0.0000 Cl  0  0
  1  2  1  0
M  END
> <Name>
Chlorinated Water

> <Substance ID>
704

> <Synonyms>
Dichlorine; Chlorine; Chlorine; Molecular Chlorine.

> <CAS>
7782-50-5

> <Reference>
NTP392

> <MolWeight>
70.91

> <Formula>
Cl2

> <SMILES>
ClCl

> <TD50_Rat>
NP

> <TD50_Mouse>
NP

> <Canc>
2

> <SAL>
1

> <Rat_Male_Canc>
1

> <Rat_Female_Canc>
2

> <Mouse_Male_Canc>
1

> <Mouse_Female_Canc>
1

> <Rat_Male_NTP>
NE

> <Rat_Female_NTP>
EE

> <Mouse_Male_NTP>
NE

> <Mouse_Female_NTP>
NE

> <Status>
Non-Carcinogen

> <New_Data>
true

> <iscarc>
0

$$$$
Diethyl Phthalate
  SciTegic06161615512D

 16 16  0  0  0  0            999 V2000
    6.9164   -5.9917    0.0000 C   0  0
    6.9164   -4.6616    0.0000 O   0  0
    5.7637   -3.9902    0.0000 C   0  0
    4.6109   -4.6616    0.0000 O   0  0
    8.0691   -6.6504    0.0000 C   0  0
    3.4582   -2.6602    0.0000 C   0  0
    2.3055   -2.0015    0.0000 O   0  0
    3.4582   -3.9902    0.0000 O   0  0
    1.1527   -2.6602    0.0000 C   0  0
    0.0000   -2.0015    0.0000 C   0  0
    5.7637   -2.6602    0.0000 C   0  0
    4.6109   -2.0015    0.0000 C   0  0
    5.7637    0.0000    0.0000 C   0  0
    6.9164   -0.6714    0.0000 C   0  0
    6.9164   -2.0015    0.0000 C   0  0
    4.6109   -0.6714    0.0000 C   0  0
  1  2  1  0
  1  5  1  0
  2  3  1  0
  3  4  2  0
  3 11  1  0
  6  7  1  0
  6  8  2  0
  6 12  1  0
  7  9  1  0
  9 10  1  0
 11 12  1  0
 11 15  2  0
 12 16  2  0
 13 14  2  0
 13 16  1  0
 14 15  1  0
M  END
> <Name>
Diethyl Phthalate

> <Substance ID>
705

> <Synonyms>
1,2-benzenedicarboxylic acid diethyl ester; anozol; Benzenedicarboxylic acid, diethyl ester; diethyl o-phthalate; DEP; estol 1550; Ethyl phthalate; neantine; palatinol a; phthalol; placidol e; solvano
l.

> <CAS>
84-66-2

> <Reference>
NTP429

> <MolWeight>
222.24

> <Formula>
C12H14O4

> <SMILES>
O=C(OCC)c(c(ccc1)C(=O)OCC)c1

> <TD50_Rat>
NP

> <TD50_Mouse>
NP

> <Canc>
2

> <SAL>
1

> <Rat_Male_Canc>
1

> <Rat_Female_Canc>
1

> <Mouse_Male_Canc>
2

> <Mouse_Female_Canc>
2

> <Rat_Male_NTP>
NE

> <Rat_Female_NTP>
NE

> <Mouse_Male_NTP>
EE

> <Mouse_Female_NTP>
EE

> <Status>
Carcinogen

> <New_Data>
true

> <iscarc>
1

$$$$
C.I. Direct Blue 218
  SciTegic06161615512D

 58 63  0  0  0  0            999 V2000
   12.6726  -13.1292    0.0000 O   0  0
   12.6726  -11.7973    0.0000 C   0  0
   11.5182  -11.1376    0.0000 C   0  5
   11.5182   -9.8057    0.0000 C   0  0
   12.6726   -9.1461    0.0000 C   0  0
   13.8269   -9.8057    0.0000 C   0  0
   13.8269  -11.1376    0.0000 C   0  0
   14.9813  -11.7973    0.0000 N   0  0
   16.1356  -11.1376    0.0000 N   0  0
   17.2900  -11.7973    0.0000 C   0  0
   18.4317  -11.1376    0.0000 C   0  0
   19.5860  -11.7973    0.0000 C   0  0
   19.5860  -13.1292    0.0000 C   0  0
   20.7404  -13.8015    0.0000 C   0  0
   20.7404  -15.1335    0.0000 C   0  0
   19.5860  -15.7931    0.0000 C   0  0
   18.4317  -15.1335    0.0000 C   0  0
   17.2900  -15.7931    0.0000 N   0  0
   18.4317  -13.8015    0.0000 C   0  0
   17.2900  -13.1292    0.0000 C   0  0
   16.1356  -13.8015    0.0000 O   0  0
   21.8947  -15.7931    0.0000 S   0  0
   21.2224  -16.9475    0.0000 O   0  5
   23.0491  -16.4528    0.0000 O   0  0
   22.5544  -14.6388    0.0000 O   0  0
   18.4317   -9.8057    0.0000 S   0  0
   19.7636   -9.8057    0.0000 O   0  5
   18.4317   -8.4737    0.0000 O   0  0
   17.1124   -9.8057    0.0000 O   0  0
   10.3765   -9.1461    0.0000 C   0  0
    9.2222   -9.8057    0.0000 C   0  0
    8.0678   -9.1461    0.0000 C   0  0
    8.0678   -7.8141    0.0000 C   0  0
    6.9135   -7.1418    0.0000 N   0  0
    6.9135   -5.8098    0.0000 N   0  0
    5.7591   -5.1502    0.0000 C   0  0
    4.6047   -5.8098    0.0000 C   0  0
    3.4631   -5.1502    0.0000 C   0  0
    3.4631   -3.8183    0.0000 C   0  0
    2.3087   -3.1586    0.0000 C   0  0
    2.3087   -1.8267    0.0000 C   0  0
    3.4631   -1.1544    0.0000 C   0  0
    4.6047   -1.8267    0.0000 C   0  0
    5.7591   -1.1544    0.0000 N   0  0
    4.6047   -3.1586    0.0000 C   0  0
    5.7591   -3.8183    0.0000 C   0  0
    6.9135   -3.1586    0.0000 O   0  0
    1.1544   -1.1544    0.0000 S   0  0
    1.8140    0.0000    0.0000 O   0  5
    0.0000   -0.4947    0.0000 O   0  0
    0.4947   -2.3087    0.0000 O   0  0
    4.6047   -7.1418    0.0000 S   0  0
    3.2855   -7.1418    0.0000 O   0  5
    4.6047   -8.4737    0.0000 O   0  0
    5.9367   -7.1418    0.0000 O   0  0
    9.2222   -7.1418    0.0000 C   0  0
    9.2222   -5.8098    0.0000 O   0  0
   10.3765   -7.8141    0.0000 C   0  0
  1  2  1  0
  2  3  2  0
  2  7  1  0
  3  4  1  0
  4  5  2  0
  4 30  1  0
  5  6  1  0
  6  7  2  0
  7  8  1  0
  8  9  2  0
  9 10  1  0
 10 11  2  0
 10 20  1  0
 11 12  1  0
 11 26  1  0
 12 13  2  0
 13 14  1  0
 13 19  1  0
 14 15  2  0
 15 16  1  0
 15 22  1  0
 16 17  2  0
 17 18  1  0
 17 19  1  0
 19 20  2  0
 20 21  1  0
 22 23  1  0
 22 24  2  0
 22 25  2  0
 26 27  1  0
 26 28  2  0
 26 29  2  0
 30 31  2  0
 30 58  1  0
 31 32  1  0
 32 33  2  0
 33 34  1  0
 33 56  1  0
 34 35  2  0
 35 36  1  0
 36 37  2  0
 36 46  1  0
 37 38  1  0
 37 52  1  0
 38 39  2  0
 39 40  1  0
 39 45  1  0
 40 41  2  0
 41 42  1  0
 41 48  1  0
 42 43  2  0
 43 44  1  0
 43 45  1  0
 45 46  2  0
 46 47  1  0
 48 49  1  0
 48 50  2  0
 48 51  2  0
 52 53  1  0
 52 54  2  0
 52 55  2  0
 56 57  1  0
 56 58  2  0
M  CHG  5   3  -1  23  -1  27  -1  49  -1  53  -1
M  END
> <Name>
C.I. Direct Blue 218

> <Substance ID>
706

> <Synonyms>
Anamil supra blue 9gl; direct blue 218; C.I. 24401; fast blue 7gln; fastusol blue 9glp; [mu-[[3,3'-[(3,3'-dihydroxy[1,1'-biphenyl]-4,4'-diyl)bis(azo)]bis[5-amino-4-hydroxy-2,7-naphthalenedisulfonato]]
(4-)]]dicopper, tetrasodium salt; pontamine bond blue b.

> <CAS>
28407-37-6

> <Reference>
NTP430

> <MolWeight>
964.76

> <Formula>
C32H19N6O16S4

> <SMILES>
Oc3cc(ccc3/N=N/c2c(cc1cc(cc(N)c1c2O)S([O-])(=O)=O)S([O-])(=O)=O)c6ccc(/N=N/c5c(cc4cc(cc(N)c4c5O)S([O-])(=O)=O)S([O-])(=O)=O)c(O)c6.[Na+].[Na+].[Na+].[Na+]

> <TD50_Rat>
1570

> <TD50_Mouse>
857

> <Canc>
3

> <SAL>
1

> <Rat_Male_Canc>
3

> <Rat_Female_Canc>
1

> <Mouse_Male_Canc>
3

> <Mouse_Female_Canc>
3

> <Rat_Male_NTP>
SE

> <Rat_Female_NTP>
NE

> <Mouse_Male_NTP>
CE

> <Mouse_Female_NTP>
CE

> <Status>
Carcinogen

> <CanonicalTautomer>
Yes

> <NumberOfTautomers>
24

> <New_Data>
true

> <iscarc>
1

$$$$
Zidovudine
  SciTegic06161615512D

 19 20  0  0  1  0            999 V2000
    3.3219   -1.1510    0.0000 N   0  0
    3.9922   -2.3020    0.0000 C   0  0
    3.3219   -3.4531    0.0000 N   0  0
    1.9961   -3.4531    0.0000 C   0  0
    1.3259   -2.3020    0.0000 C   0  0
    1.9961   -1.1510    0.0000 C   0  0
    5.3180   -2.3020    0.0000 O   0  0
    1.3259    0.0000    0.0000 O   0  0
    0.0000   -2.3020    0.0000 C   0  0
    4.4438   -6.7167    0.0000 C   0  0  2  0  0  0
    3.4531   -5.8280    0.0000 C   0  0
    3.9922   -4.6041    0.0000 C   0  0  1  0  0  0
    5.3180   -4.7498    0.0000 O   0  0
    5.5948   -6.0465    0.0000 C   0  0  2  0  0  0
    4.2981   -8.0426    0.0000 N   0  0
    6.8041   -6.5856    0.0000 C   0  0
    7.8823   -5.8134    0.0000 O   0  0
    5.3763   -8.8148    0.0000 N   0  3
    6.4545   -9.6016    0.0000 N   0  5
  1  2  1  0
  1  6  1  0
  2  3  1  6
  2  7  2  0
  3  4  1  0
  3 12  1  0
  4  5  2  0
  5  6  1  1
  5  9  1  0
  6  8  2  0
 10 11  1  0
 10 14  1  0
 10 15  1  6
 11 12  1  1
 12 13  1  6
 13 14  1  0
 14 16  1  6
 15 18  2  0
 16 17  1  0
 18 19  2  0
M  CHG  2  18   1  19  -1
M  END
> <Name>
Zidovudine

> <Substance ID>
708

> <Synonyms>
3-azido-3-deoxythymidine; 3'-Azido-3'-deoxythymidine; 3'-Azidothymidine; 3'-deoxy-3'-azidothymidine; azidodeoxythymidine; Azidothymidine; AZT; bw-a 509u; Retrovir; ZDV; ZVD.

> <CAS>
30516-87-1

> <Reference>
NTP469

> <MolWeight>
267.25

> <Formula>
C10H13N5O4

> <SMILES>
C1=C(C)C(=O)NC(=O)N1C2OC(CO)C(N=N#N)C2

> <TD50_Rat>
ND

> <TD50_Mouse>
ND

> <Canc>
3

> <SAL>
3

> <Rat_Male_Canc>
ND

> <Rat_Female_Canc>
ND

> <Mouse_Male_Canc>
2

> <Mouse_Female_Canc>
3

> <Rat_Male_NTP>
ND

> <Rat_Female_NTP>
ND

> <Mouse_Male_NTP>
EE

> <Mouse_Female_NTP>
CE

> <Status>
Carcinogen

> <CanonicalTautomer>
Yes

> <NumberOfTautomers>
3

> <New_Data>
true

> <iscarc>
1

$$$$
Mercuric chloride
  SciTegic06161615513D

  3  2  0  0  0  0            999 V2000
   -0.0293    2.3057    0.0147 Hg  0  0
    0.0021   -0.0041    0.0020 Cl  0  0
   -0.0606    4.6154    0.0274 Cl  0  0
  1  2  1  0
  1  3  1  0
M  END
> <Name>
Mercuric chloride

> <Substance ID>
711

> <Synonyms>
Bichloride of Mercury; dichloromercury; Corrosive mercury chloride; Corrosive Sublimate; mercury bichloride; Mercury chloride; Mercury chloride (2); Mercuric bichloride; mercuric chloride; Mercury (II
) Chloride; Mercury perchloride; perchloride of mercury; sublimate; TL 898.

> <CAS>
7487-94-7

> <Reference>
NTP408

> <MolWeight>
271.5

> <Formula>
Cl2Hg

> <SMILES>
Cl[Hg]Cl

> <TD50_Rat>
3.12

> <TD50_Mouse>
NP

> <Canc>
3

> <SAL>
1

> <Rat_Male_Canc>
3

> <Rat_Female_Canc>
2

> <Mouse_Male_Canc>
2

> <Mouse_Female_Canc>
1

> <Rat_Male_NTP>
SE

> <Rat_Female_NTP>
EE

> <Mouse_Male_NTP>
EE

> <Mouse_Female_NTP>
NE

> <Status>
Carcinogen

> <New_Data>
true

> <iscarc>
1

$$$$
Nickel Oxide
  SciTegic06161615512D

  2  1  0  0  0  0            999 V2000
    0.0000    0.0000    0.0000 Ni  0  0
    1.3300    0.0000    0.0000 O   0  0
  1  2  2  0
M  END
> <Name>
Nickel Oxide

> <Substance ID>
713

> <Synonyms>
C.I. 77777; green nickel oxide; mononickel oxide; Nickel (II) oxide; Nickelous oxide; nickel(II) oxide (1:1); nickel(II) oxide, black; Nickel (II) oxide, green; Nickel Monoxide; Nickel oxide; nickel o
xide sinter 75; Nickel oxide-tungsten oxide; nickel protoxide.

> <CAS>
1313-99-1

> <Reference>
NTP451

> <MolWeight>
74.69

> <Formula>
NiO

> <SMILES>
[Ni]=O

> <TD50_Rat>
ND

> <TD50_Mouse>
NP

> <Canc>
3

> <SAL>
ND

> <Rat_Male_Canc>
3

> <Rat_Female_Canc>
3

> <Mouse_Male_Canc>
1

> <Mouse_Female_Canc>
2

> <Rat_Male_NTP>
SE

> <Rat_Female_NTP>
SE

> <Mouse_Male_NTP>
NE

> <Mouse_Female_NTP>
EE

> <Status>
Non-Carcinogen

> <New_Data>
true

> <iscarc>
0

$$$$
Orthoboric acid
  SciTegic06161615512D

  4  3  0  0  0  0            999 V2000
    1.1445    0.0000    0.0000 O   0  0
    1.1445   -1.3226    0.0000 B   0  0
    0.0000   -1.9966    0.0000 O   0  0
    2.3018   -1.9966    0.0000 O   0  0
  1  2  1  0
  2  3  1  0
  2  4  1  0
M  END
> <Name>
Orthoboric acid

> <Substance ID>
734

> <Synonyms>
Orthoboric acid (H3BO3); Boracic acid; Borofax; Boron trihydroxide; hydrogen orthoborate; Kill-off; Kjel-sorb; three elephant; Trihydroxyborane.

> <CAS>
10043-35-3

> <Reference>
NTP324

> <MolWeight>
61.83

> <Formula>
H3BO3

> <SMILES>
OB(O)O

> <TD50_Rat>
ND

> <TD50_Mouse>
NP

> <Canc>
1

> <SAL>
1

> <Rat_Male_Canc>
ND

> <Rat_Female_Canc>
ND

> <Mouse_Male_Canc>
1

> <Mouse_Female_Canc>
1

> <Rat_Male_NTP>
ND

> <Rat_Female_NTP>
ND

> <Mouse_Male_NTP>
NE

> <Mouse_Female_NTP>
NE

> <Status>
Non-Carcinogen

> <New_Data>
true

> <iscarc>
0

$$$$
Chlorpheniramine maleate
  SciTegic06161615512D

 19 20  0  0  1  0            999 V2000
    1.1477   -7.9765    0.0000 C   0  0
    0.0000   -7.3070    0.0000 C   0  0
    0.0000   -5.9871    0.0000 C   0  0
    1.1477   -5.3176    0.0000 C   0  0
    2.2954   -5.9871    0.0000 C   0  0
    2.2954   -7.3070    0.0000 N   0  0
    3.4622   -5.3176    0.0000 C   0  0  1  0  0  0
    4.6099   -5.9871    0.0000 C   0  0
    5.7576   -5.3176    0.0000 C   0  0
    6.9053   -5.9871    0.0000 N   0  0
    3.4622   -3.9787    0.0000 C   0  0
    2.2954   -3.3283    0.0000 C   0  0
    2.2954   -1.9893    0.0000 C   0  0
    3.4622   -1.3198    0.0000 C   0  0
    4.6099   -1.9893    0.0000 C   0  0
    4.6099   -3.3283    0.0000 C   0  0
    3.4622    0.0000    0.0000 Cl  0  0
    8.0530   -5.3176    0.0000 C   0  0
    6.9053   -7.3070    0.0000 C   0  0
  1  2  2  0
  1  6  1  0
  2  3  1  0
  3  4  2  0
  4  5  1  0
  5  6  2  0
  5  7  1  0
  7  8  1  6
  7 11  1  0
  8  9  1  0
  9 10  1  6
 10 18  1  0
 10 19  1  6
 11 12  2  0
 11 16  1  6
 12 13  1  0
 13 14  2  0
 14 15  1  6
 14 17  1  0
 15 16  2  0
M  END
> <Name>
Chlorpheniramine maleate

> <Substance ID>
742

> <Synonyms>
1-p-chlorophenyl-1-(2-pyridyl)-3-dimethylaminopropane maleate; 1-(N,N-dimethylamino)-3-(p-chlorophenyl)-3-(alpha-pyridyl)propane maleate; 2-(p-chloro-alpha-(2-(dimethylamino)ethyl)benzyl)pyridine male
ate (1:1); chloropiril; chloroprophenpyridamine maleate; chlor-trimeton maleate; gamma-(4-chlorophenyl)-N,N-dimethyl-2-pyridinepropanamine(Z)-2-butenedioate (1:1).

> <CAS>
113-92-8

> <Reference>
NTP317

> <MolWeight>
274.79

> <Formula>
C16H19ClN2

> <SMILES>
C[N](CCC(C1=CC=C(C=C1)Cl)C2=NC=CC=C2)C

> <TD50_Rat>
NP

> <TD50_Mouse>
NP

> <Canc>
1

> <SAL>
1

> <Rat_Male_Canc>
1

> <Rat_Female_Canc>
1

> <Mouse_Male_Canc>
1

> <Mouse_Female_Canc>
1

> <Rat_Male_NTP>
NE

> <Rat_Female_NTP>
NE

> <Mouse_Male_NTP>
NE

> <Mouse_Female_NTP>
NE

> <Status>
Non-Carcinogen

> <New_Data>
true

> <iscarc>
0

$$$$
Fumonisin B1
  SciTegic06161615512D

 50 49  0  0  1  0            999 V2000
   10.3709  -17.9560    0.0000 C   0  0
    9.2186  -18.6145    0.0000 C   0  0
    8.0663  -17.9560    0.0000 C   0  0  2  0  0  0
    8.0663  -16.6264    0.0000 C   0  0
    6.9139  -15.9553    0.0000 C   0  0
    6.9139  -14.6256    0.0000 O   0  0
    8.0663  -13.9672    0.0000 C   0  0  2  0  0  0
    8.0663  -12.6376    0.0000 C   0  0
    9.2186  -11.9664    0.0000 C   0  0
    9.2186  -10.6368    0.0000 C   0  0
   10.3709   -9.9784    0.0000 C   0  0
   10.3709   -8.6488    0.0000 C   0  0
   11.5232   -7.9776    0.0000 C   0  0
   11.5232   -6.6480    0.0000 C   0  0
   12.6756   -5.9896    0.0000 C   0  0
   12.6756   -4.6599    0.0000 C   0  0
   13.8152   -3.9888    0.0000 C   0  0  2  0  0  0
   13.8152   -2.6592    0.0000 C   0  0
   14.9675   -2.0007    0.0000 C   0  0  2  0  0  0
   14.9675   -0.6711    0.0000 C   0  0  2  0  0  0
   11.5232  -18.6145    0.0000 O   0  0
   10.3709  -16.6264    0.0000 O   0  0
    6.9139  -18.6145    0.0000 C   0  0
    6.9139  -19.9441    0.0000 O   0  0
    5.7616  -17.9560    0.0000 O   0  0
    5.7616  -16.6264    0.0000 O   0  0
    9.2186  -14.6256    0.0000 C   0  0  1  0  0  0
    9.2186  -15.9553    0.0000 C   0  0
   10.3709  -13.9672    0.0000 C   0  0
   10.3709  -12.6376    0.0000 C   0  0
   11.5232  -11.9664    0.0000 C   0  0
   11.5232  -10.6368    0.0000 C   0  0
    6.9139  -11.9664    0.0000 O   0  0
    5.7616  -12.6376    0.0000 C   0  0
    5.7616  -13.9672    0.0000 O   0  0
    4.6093  -11.9664    0.0000 C   0  0
    3.4570  -12.6376    0.0000 C   0  0  2  0  0  0
    2.3046  -11.9664    0.0000 C   0  0
    3.4570  -13.9672    0.0000 C   0  0
    2.3046  -14.6256    0.0000 O   0  0
    4.6093  -14.6256    0.0000 O   0  0
    1.1523  -12.6376    0.0000 C   0  0
    1.1523  -13.9672    0.0000 O   0  0
    0.0000  -11.9664    0.0000 O   0  0
    8.0663   -9.9784    0.0000 C   0  0
    9.2186   -7.9776    0.0000 O   0  0
   14.9675   -4.6599    0.0000 O   0  0
   16.1199   -2.6592    0.0000 O   0  0
   13.8152    0.0000    0.0000 C   0  0
   16.1199    0.0000    0.0000 N   0  0
  1  2  1  0
  1 21  1  0
  1 22  2  0
  2  3  1  0
  3  4  1  6
  3 23  1  1
  4  5  1  0
  5  6  1  6
  5 26  2  0
  6  7  1  0
  7  8  1  6
  7 27  1  0
  8  9  1  0
  8 33  1  0
  9 10  1  6
 10 11  1  0
 10 45  1  0
 11 12  1  6
 12 13  1  0
 12 46  1  0
 13 14  1  6
 14 15  1  0
 15 16  1  6
 16 17  1  0
 17 18  1  6
 17 47  1  0
 18 19  1  0
 19 20  1  6
 19 48  1  0
 20 49  1  6
 20 50  1  0
 23 24  1  1
 23 25  2  0
 27 28  1  6
 27 29  1  0
 29 30  1  6
 30 31  1  0
 31 32  1  6
 33 34  1  0
 34 35  2  0
 34 36  1  1
 36 37  1  0
 37 38  1  1
 37 39  1  0
 38 42  1  0
 39 40  1  0
 39 41  2  0
 42 43  1  1
 42 44  2  0
M  END
> <Name>
Fumonisin B1

> <Substance ID>
764

> <Synonyms>
Fungal metabolite from Fusarium monliforme.

> <CAS>
116355-83-0

> <Reference>
NTP496

> <MolWeight>
721.84

> <Formula>
C34H59NO15

> <SMILES>
O=C(O)[C@H2][C@H](C(=O)O)[C@H2]C(=O)O[C@@H]([C@@H]([C@H3])[C@H2][C@H2][C@H2][C@@H3])[C@@H](OC(=O)[C@@H2][C@@H](C(=O)O)[C@H2]C(=O)O)[C@@H2][C@@H]([C@H3])[C@@H2][C@@H](O)[C@H2][C@@H2][C@@H2][C@@H2][C@@H
](O)[C@H2][C@@H](O)[C@H]([N@H2])[C@@H3]

> <TD50_Rat>
1.16

> <TD50_Mouse>
ND

> <Canc>
3

> <SAL>
1

> <Rat_Male_Canc>
3

> <Rat_Female_Canc>
1

> <Mouse_Male_Canc>
1

> <Mouse_Female_Canc>
3

> <Rat_Male_NTP>
CE

> <Rat_Female_NTP>
NE

> <Mouse_Male_NTP>
NE

> <Mouse_Female_NTP>
CE

> <Status>
Non-Carcinogen

> <New_Data>
true

> <iscarc>
0

$$$$
Methacrylonitrile
  SciTegic06161615512D

  5  4  0  0  0  0            999 V2000
    0.0000   -2.0034    0.0000 C   0  0
    1.1539   -1.3314    0.0000 C   0  0
    2.3077   -2.0034    0.0000 C   0  0
    3.4489   -2.6628    0.0000 N   0  0
    1.1539    0.0000    0.0000 C   0  0
  1  2  1  0
  2  3  1  0
  2  5  2  0
  3  4  3  0
M  END
> <Name>
Methacrylonitrile

> <Substance ID>
765

> <Synonyms>
2-cyanopropene; 2-cyanopropene-1; 2-Methyl-2-Propenenitrile; 2-methylpropenenitrile; alpha-Methylacrylonitrile; Isopropene Cyanide; Isopropenylcarbonitrile; MAN; Methyl Acrylonitrile.

> <CAS>
126-98-7

> <Reference>
NTP497

> <MolWeight>
67.09

> <Formula>
C4H5N

> <SMILES>
C(#N)C(=C)C

> <TD50_Rat>
NP

> <TD50_Mouse>
NP

> <Canc>
1

> <SAL>
1

> <Rat_Male_Canc>
1

> <Rat_Female_Canc>
1

> <Mouse_Male_Canc>
1

> <Mouse_Female_Canc>
1

> <Rat_Male_NTP>
NE

> <Rat_Female_NTP>
NE

> <Mouse_Male_NTP>
NE

> <Mouse_Female_NTP>
NE

> <Status>
Non-Carcinogen

> <New_Data>
true

> <iscarc>
0

$$$$
4-Nitrotoluene
  SciTegic06161615512D

 10 10  0  0  0  0            999 V2000
    1.1517    0.0000    0.0000 C   0  0
    1.1517   -1.3289    0.0000 C   0  0
    2.3035   -1.9997    0.0000 C   0  0
    2.3035   -3.3286    0.0000 C   0  0
    1.1517   -3.9868    0.0000 C   0  0
    0.0000   -3.3286    0.0000 C   0  0
    0.0000   -1.9997    0.0000 C   0  0
    1.1517   -5.3157    0.0000 N   0  3
    0.0000   -5.9865    0.0000 O   0  5
    2.3035   -5.9865    0.0000 O   0  0
  1  2  1  0
  2  3  1  0
  2  7  2  0
  3  4  2  0
  4  5  1  0
  5  6  2  0
  5  8  1  0
  6  7  1  0
  8  9  1  0
  8 10  2  0
M  CHG  2   8   1   9  -1
M  END
> <Name>
4-Nitrotoluene

> <Substance ID>
766

> <Synonyms>
4-Methylnitrobenzene; p-nitrophenylmethane; 4-nitrotoluol; Benzene, 1-methyl-4-nitro-; PNT.

> <CAS>
99-99-0

> <Reference>
NTP498

> <MolWeight>
137.14

> <Formula>
C7H7NO2

> <SMILES>
N(=O)(=O)c(ccc(c1)C)c1

> <TD50_Rat>
ND

> <TD50_Mouse>
NP

> <Canc>
3

> <SAL>
1

> <Rat_Male_Canc>
2

> <Rat_Female_Canc>
3

> <Mouse_Male_Canc>
2

> <Mouse_Female_Canc>
1

> <Rat_Male_NTP>
EE

> <Rat_Female_NTP>
SE

> <Mouse_Male_NTP>
EE

> <Mouse_Female_NTP>
NE

> <Status>
Carcinogen

> <New_Data>
true

> <iscarc>
1

$$$$
Indium phosphide
  SciTegic06161615512D

  2  1  0  0  0  0            999 V2000
    0.0000    0.0000    0.0000 In  0  0
    1.3300    0.0000    0.0000 P   0  0
  1  2  3  0
M  END
> <Name>
Indium phosphide

> <Substance ID>
767

> <Synonyms>
Indium (III) phosphide; Indium phosphide, 99.999% (metals basis).

> <CAS>
22398-80-7

> <Reference>
NTP499

> <MolWeight>
145.79

> <Formula>
InP

> <SMILES>
[In]#P

> <TD50_Rat>
ND

> <TD50_Mouse>
ND

> <Canc>
3

> <SAL>
ND

> <Rat_Male_Canc>
3

> <Rat_Female_Canc>
3

> <Mouse_Male_Canc>
3

> <Mouse_Female_Canc>
3

> <Rat_Male_NTP>
CE

> <Rat_Female_NTP>
CE

> <Mouse_Male_NTP>
CE

> <Mouse_Female_NTP>
CE

> <Status>
Carcinogen

> <New_Data>
true

> <iscarc>
1

$$$$
4,4[-Dichlorodiphenyl sulphone]
  SciTegic06161615512D

 17 18  0  0  0  0            999 V2000
    7.3039   -0.1695    0.0000 C   0  0
    8.6291   -0.1695    0.0000 C   0  0
    9.2917   -1.3252    0.0000 C   0  0
    8.6291   -2.4809    0.0000 C   0  0
    7.3039   -2.4809    0.0000 C   0  0
    6.6413   -1.3252    0.0000 C   0  0
    1.9878   -0.1695    0.0000 C   0  0
    3.3130   -0.1695    0.0000 C   0  0
    3.9910   -1.3252    0.0000 C   0  0
    3.3130   -2.4809    0.0000 C   0  0
    1.9878   -2.4809    0.0000 C   0  0
    1.3252   -1.3252    0.0000 C   0  0
    0.0000   -1.3252    0.0000 Cl  0  0
    5.3162   -1.3252    0.0000 S   0  0
    5.3162    0.0000    0.0000 O   0  0
    5.3162   -2.6504    0.0000 O   0  0
   10.6323   -1.3252    0.0000 Cl  0  0
  1  2  2  0
  1  6  1  0
  2  3  1  0
  3  4  2  0
  3 17  1  0
  4  5  1  0
  5  6  2  0
  6 14  1  0
  7  8  1  0
  7 12  2  0
  8  9  2  0
  9 10  1  0
  9 14  1  0
 10 11  2  0
 11 12  1  0
 12 13  1  0
 14 15  2  0
 14 16  2  0
M  END
> <Name>
4,4[-Dichlorodiphenyl sulphone]

> <Substance ID>
768

> <Synonyms>
1,1'-sulfonylbis(4-chlorobenzene); 4,4'-dichlorophenyl sulfone; 4-chloro-1-(4-chlorophenylsulfonyl)benzene; p-chlorophenyl sulfone; bis(p-chlorophenyl) sulfone.

> <CAS>
80-07-9

> <Reference>
NTP501

> <MolWeight>
287.16

> <Formula>
C12H8Cl2O2S

> <SMILES>
O=S(=O)(c(ccc(c1)Cl)c1)c(ccc(c2)Cl)c2

> <TD50_Rat>
NP

> <TD50_Mouse>
NP

> <Canc>
1

> <SAL>
1

> <Rat_Male_Canc>
1

> <Rat_Female_Canc>
1

> <Mouse_Male_Canc>
1

> <Mouse_Female_Canc>
1

> <Rat_Male_NTP>
NE

> <Rat_Female_NTP>
NE

> <Mouse_Male_NTP>
NE

> <Mouse_Female_NTP>
NE

> <Status>
Non-Carcinogen

> <New_Data>
true

> <iscarc>
0

$$$$
Chloral hydrate
  SciTegic06161615512D

  7  6  0  0  0  0            999 V2000
    1.1555   -1.1555    0.0000 C   0  0
    2.3109   -1.8195    0.0000 C   0  0
    3.4531   -1.1555    0.0000 O   0  0
    2.3109   -3.1476    0.0000 O   0  0
    0.0000   -0.4914    0.0000 Cl  0  0
    0.4914   -2.3109    0.0000 Cl  0  0
    1.8195    0.0000    0.0000 Cl  0  0
  1  2  1  0
  1  5  1  0
  1  6  1  0
  1  7  1  0
  2  3  1  0
  2  4  1  0
M  END
> <Name>
Chloral hydrate

> <Substance ID>
769

> <Synonyms>
1,1,1-trichloro-2,2-ethanediol; 2,2,2-Trichloro-1,1-ethanediol; aquachloral; bi 3411; chloraldurat; dormal; Escre; felsules; hydral; kessodrate; lorinal; Noctec; nortec; nycoton; nycton; phaldrone; re
ctules; sk-chloral hydrate; somni sed; somnos; sontec; trawotox; trichloroacetaldehyde hydrate; Trichloroacetaldehyde Monohydrate.

> <CAS>
302-17-0

> <Reference>
NTP502 & 503

> <MolWeight>
165.4

> <Formula>
C2H3Cl3O2

> <SMILES>
ClC(C(O)O)(Cl)Cl

> <TD50_Rat>
ND

> <TD50_Mouse>
106

> <Canc>
3

> <SAL>
3

> <Rat_Male_Canc>
ND

> <Rat_Female_Canc>
ND

> <Mouse_Male_Canc>
3

> <Mouse_Female_Canc>
2

> <Rat_Male_NTP>
ND

> <Rat_Female_NTP>
ND

> <Mouse_Male_NTP>
SE

> <Mouse_Female_NTP>
EE

> <Status>
Carcinogen

> <New_Data>
true

> <iscarc>
1

$$$$
2-Nitrotoluene
  SciTegic06161615512D

 10 10  0  0  0  0            999 V2000
    2.6583    0.0000    0.0000 C   0  0
    3.9875    0.0000    0.0000 C   0  0
    4.6584   -1.1519    0.0000 C   0  0
    3.9875   -2.3039    0.0000 C   0  0
    2.6583   -2.3039    0.0000 C   0  0
    2.0001   -1.1519    0.0000 C   0  0
    2.0001   -3.4558    0.0000 C   0  0
    0.6709   -1.1519    0.0000 N   0  3
    0.0000    0.0000    0.0000 O   0  5
    0.0000   -2.3039    0.0000 O   0  0
  1  2  2  0
  1  6  1  0
  2  3  1  0
  3  4  2  0
  4  5  1  0
  5  6  2  0
  5  7  1  0
  6  8  1  0
  8  9  1  0
  8 10  2  0
M  CHG  2   8   1   9  -1
M  END
> <Name>
2-Nitrotoluene

> <Substance ID>
770

> <Synonyms>
2-Methyl-1-nitrobenzene; 2-methylnitrobenzene; o-nitrophenylmethane; 2-nitrotoluol; alpha-Methylnitrobenzene; Benzene, 1-methyl-2-nitro-; methylnitrobenzene; ONT.

> <CAS>
88-72-2

> <Reference>
NTP504

> <MolWeight>
137.14

> <Formula>
C7H7NO2

> <SMILES>
N(=O)(=O)c(c(ccc1)C)c1

> <TD50_Rat>
ND

> <TD50_Mouse>
ND

> <Canc>
3

> <SAL>
1

> <Rat_Male_Canc>
3

> <Rat_Female_Canc>
3

> <Mouse_Male_Canc>
3

> <Mouse_Female_Canc>
3

> <Rat_Male_NTP>
CE

> <Rat_Female_NTP>
CE

> <Mouse_Male_NTP>
CE

> <Mouse_Female_NTP>
CE

> <Status>
Carcinogen

> <New_Data>
true

> <iscarc>
1

$$$$
Vanadium pentoxide
  SciTegic06161615512D

  7  6  0  0  0  0            999 V2000
    1.1516   -0.6696    0.0000 V   0  0
    1.1516   -1.9953    0.0000 O   0  0
    3.4549   -1.9953    0.0000 O   0  0
    3.4549   -0.6696    0.0000 V   0  0
    2.3033    0.0000    0.0000 O   0  0
    0.0000    0.0000    0.0000 O   0  0
    4.6066    0.0000    0.0000 O   0  0
  1  2  2  0
  1  5  1  0
  1  6  2  0
  3  4  2  0
  4  5  1  0
  4  7  2  0
M  END
> <Name>
Vanadium pentoxide

> <Substance ID>
771

> <Synonyms>
C.I. 77938; Vanadic anhydride; vanadium (5) oxide; Vanadium oxide; Vanadium oxide (5); vanadium oxide (C2O5); Vanadium oxides; vanadium(V) oxide; vanadium(V) pentoxide; V-O.

> <CAS>
1314-62-1

> <Reference>
NTP507

> <MolWeight>
181.88

> <Formula>
O5V2

> <SMILES>
O=[V](=O)O[V](=O)=O

> <TD50_Rat>
ND

> <TD50_Mouse>
ND

> <Canc>
3

> <SAL>
1

> <Rat_Male_Canc>
3

> <Rat_Female_Canc>
2

> <Mouse_Male_Canc>
3

> <Mouse_Female_Canc>
3

> <Rat_Male_NTP>
SE

> <Rat_Female_NTP>
EE

> <Mouse_Male_NTP>
CE

> <Mouse_Female_NTP>
CE

> <Status>
Carcinogen

> <New_Data>
true

> <iscarc>
1

$$$$
Riddelline
  SciTegic06161615512D

 25 27  0  0  1  0            999 V2000
    6.9433   -6.4949    0.0000 C   0  0
    5.9569   -5.5982    0.0000 C   0  0
    6.4052   -7.7119    0.0000 C   0  0
    5.0729   -7.5710    0.0000 N   0  0
    4.7911   -6.2771    0.0000 C   0  0
    3.4588   -6.2771    0.0000 C   0  0
    3.0105   -7.5326    0.0000 C   0  0
    3.9328   -8.2756    0.0000 C   0  0
    2.3059   -5.5982    0.0000 O   0  0
    6.6230   -4.4452    0.0000 C   0  0
    1.6397   -4.4452    0.0000 C   0  0
    1.6397   -3.1129    0.0000 C   0  0
    0.3459   -4.7911    0.0000 O   0  0
    2.3059   -1.9600    0.0000 C   0  0
    3.4588   -1.2939    0.0000 C   0  0
    0.3459   -2.7671    0.0000 C   0  0
    0.0000   -1.4732    0.0000 C   0  0
    3.1129    0.0000    0.0000 C   0  0
    4.7911   -1.2939    0.0000 C   0  0  2  0  0  0
    5.9569   -1.9600    0.0000 C   0  0
    5.7391   -0.3459    0.0000 C   0  0
    4.4452    0.0000    0.0000 O   0  0
    7.0329   -0.6918    0.0000 O   0  0
    6.6230   -3.1129    0.0000 O   0  0
    6.8920   -1.0120    0.0000 O   0  0
  1  2  2  0
  1  3  1  0
  2  5  1  0
  2 10  1  0
  3  4  1  0
  4  5  1  0
  4  8  1  0
  5  6  1  0
  6  7  1  0
  6  9  1  0
  7  8  1  0
  9 11  1  0
 10 24  1  0
 11 12  1  0
 11 13  2  0
 12 14  1  0
 12 16  2  0
 14 15  1  0
 15 18  2  0
 15 19  1  0
 16 17  1  0
 19 20  1  0
 19 21  1  1
 19 22  1  6
 20 24  1  0
 20 25  2  0
 21 23  1  0
M  END
> <Name>
Riddelline

> <Substance ID>
772

> <Synonyms>
13,19-didehydro-12,18-dihydroxysenecionan-11,16-dione; stereoisomer of 3-ethylidene-3,4,5,6,9,11,13,14,14alpha,14beta-decahydro-6-hydroxy-6-(hydroxymethyl)-5-methylene(1,6)dioxacyclododecino[2,3,4-gh]
-pyrrolizidine-2,7-dione; trans-15-ethylidene-12beta-hydroxy-12alpha-hydroxymethyl-13-methylenesenec-1-enine.

> <CAS>
23246-96-0

> <Reference>
NTP508

> <MolWeight>
349.4

> <Formula>
C18H23NO6

> <SMILES>
O=C\1OC3CCN2C/C=C(/COC(=O)[C@@](O)(C(=C)\CC/1=C/C)CO)[C@@H]23

> <TD50_Rat>
ND

> <TD50_Mouse>
ND

> <Canc>
3

> <SAL>
3

> <Rat_Male_Canc>
3

> <Rat_Female_Canc>
3

> <Mouse_Male_Canc>
3

> <Mouse_Female_Canc>
3

> <Rat_Male_NTP>
CE

> <Rat_Female_NTP>
CE

> <Mouse_Male_NTP>
CE

> <Mouse_Female_NTP>
CE

> <Status>
Carcinogen

> <New_Data>
true

> <iscarc>
1

$$$$
2,4-Hexadienal
  SciTegic06161615512D

  7  6  0  0  0  0            999 V2000
    0.0000   -0.6703    0.0000 C   0  0
    1.1509    0.0000    0.0000 C   0  0
    2.3017   -0.6703    0.0000 C   0  0
    3.4526    0.0000    0.0000 C   0  0
    4.5908   -0.6703    0.0000 C   0  0
    5.7416    0.0000    0.0000 C   0  0
    6.8925   -0.6703    0.0000 O   0  0
  1  2  1  0
  2  3  2  0
  3  4  1  0
  4  5  2  0
  5  6  1  0
  6  7  2  0
M  END
> <Name>
2,4-Hexadienal

> <Substance ID>
773

> <Synonyms>
2,4-Hexadien-1-al; 2,4-Hexadienal, (E,E)-; 2-Propylene acrolein; (E,E)-2,4-Hexadien-1-al; Sorbic aldehyde; trans,trans-2,4-Hexadien-1-al; trans,trans-2,4-Hexadienal; trans,trans-4-Hexadienal.

> <CAS>
142-83-6

> <Reference>
NTP509

> <MolWeight>
96.13

> <Formula>
C6H8O

> <SMILES>
O=CC=CC=CC

> <TD50_Rat>
ND

> <TD50_Mouse>
ND

> <Canc>
3

> <SAL>
3

> <Rat_Male_Canc>
3

> <Rat_Female_Canc>
3

> <Mouse_Male_Canc>
3

> <Mouse_Female_Canc>
3

> <Rat_Male_NTP>
CE

> <Rat_Female_NTP>
CE

> <Mouse_Male_NTP>
CE

> <Mouse_Female_NTP>
CE

> <Status>
Carcinogen

> <New_Data>
true

> <iscarc>
1

$$$$
alpha-Methyldopa sesquihydrate
  SciTegic06161615512D

 15 15  0  0  0  0            999 V2000
    1.9936   -2.3039    0.0000 C   0  0
    1.3343   -1.1481    0.0000 C   0  0
    0.0000   -1.1481    0.0000 O   0  0
    1.9936    0.0000    0.0000 O   0  0
    3.1495   -1.6368    0.0000 C   0  0
    4.2976   -2.3039    0.0000 C   0  0
    5.4534   -1.6368    0.0000 C   0  0
    6.6015   -2.3039    0.0000 C   0  0
    6.6015   -3.6304    0.0000 C   0  0
    7.7573   -4.2976    0.0000 O   0  0
    5.4534   -4.2976    0.0000 C   0  0
    4.2976   -3.6304    0.0000 C   0  0
    7.7573   -1.6368    0.0000 O   0  0
    0.8455   -2.9633    0.0000 C   0  0
    2.6608   -3.4520    0.0000 N   0  0
  1  2  1  0
  1  5  1  0
  1 14  1  0
  1 15  1  0
  2  3  1  0
  2  4  2  0
  5  6  1  0
  6  7  2  0
  6 12  1  0
  7  8  1  0
  8  9  2  0
  8 13  1  0
  9 10  1  0
  9 11  1  0
 11 12  2  0
M  END
> <Name>
alpha-Methyldopa sesquihydrate

> <Substance ID>
990

> <Synonyms>
methyldopa; Aldomet

> <CAS>
41372-08-1

> <Reference>
NTP348

> <MolWeight>
211.217

> <Formula>
C10H13NO4

> <SMILES>
C(C(O)=O)(CC1=CC(=C(O)C=C1)O)(C)N

> <TD50_Rat>
NP

> <TD50_Mouse>
NP

> <Canc>
2

> <SAL>
1

> <Rat_Male_Canc>
1

> <Rat_Female_Canc>
1

> <Mouse_Male_Canc>
2

> <Mouse_Female_Canc>
1

> <Rat_Male_NTP>
NE

> <Rat_Female_NTP>
NE

> <Mouse_Male_NTP>
EE

> <Mouse_Female_NTP>
NE

> <Status>
Carcinogen

> <New_Data>
true

> <iscarc>
1

$$$$
