1-Naphthol
  DSViewer          3D                             0

 11 12  0  0  0  0  0  0  0  0999 V2000
   -1.1816    3.0281    0.0964 O   0  0  0  0  0  0  0  0  0  1
   -0.4663    1.8362    0.0746 C   0  0  0  0  0  0  0  0  0  2
    0.8644    1.8574    0.0830 C   0  0  0  0  0  0  0  0  0  3
    1.5866    3.1210    0.1149 C   0  0  0  0  0  0  0  0  0  4
    2.9207    3.1220    0.1229 C   0  0  0  0  0  0  0  0  0  5
    3.6882    1.8572    0.0999 C   0  0  0  0  0  0  0  0  0  6
    3.0711    0.6745    0.0704 C   0  0  0  0  0  0  0  0  0  7
    1.6163    0.6176    0.0604 C   0  0  0  0  0  0  0  0  0  8
    0.9819   -0.5528    0.0311 C   0  0  0  0  0  0  0  0  0  9
   -0.4836   -0.5857    0.0217 C   0  0  0  0  0  0  0  0  0 10
   -1.1744    0.5538    0.0424 C   0  0  0  0  0  0  0  0  0 11
 11  2  1  0  0  0
 10 11  2  0  0  0
  9 10  1  0  0  0
  8  9  2  0  0  0
  8  3  1  0  0  0
  7  8  1  0  0  0
  6  7  2  0  0  0
  5  6  1  0  0  0
  4  5  2  0  0  0
  3  4  1  0  0  0
  2  3  2  0  0  0
  1  2  1  0  0  0
M  END
> <CAS>
90-15-3

> <log P>
2.69

> <log M-1-LC50>
-1.51

$$$$
2,3,4,5-Tetrachlorophenol
  DSViewer          3D                             0

 11 11  0  0  0  0  0  0  0  0999 V2000
   -1.8588   -2.7847    0.4631 O   0  0  0  0  0  0  0  0  0  1
   -0.9090   -1.7720    0.3854 C   0  0  0  0  0  0  0  0  0  2
    0.0977   -1.7344    1.2567 C   0  0  0  0  0  0  0  0  0  3
    1.0974   -0.6671    1.1737 C   0  0  0  0  0  0  0  0  0  4
    2.4038   -0.6167    2.3029 Cl  0  0  0  0  0  0  0  0  0  5
    0.9997    0.2649    0.2275 C   0  0  0  0  0  0  0  0  0  6
    2.1789    1.5233    0.1300 Cl  0  0  0  0  0  0  0  0  0  7
   -0.1069    0.2232   -0.7299 C   0  0  0  0  0  0  0  0  0  8
   -0.2334    1.4322   -1.9570 Cl  0  0  0  0  0  0  0  0  0  9
   -1.0160   -0.7469   -0.6548 C   0  0  0  0  0  0  0  0  0 10
   -2.3216   -0.7958   -1.7847 Cl  0  0  0  0  0  0  0  0  0 11
 10 11  1  0  0  0
 10  2  1  0  0  0
  8 10  2  0  0  0
  8  9  1  0  0  0
  6  8  1  0  0  0
  6  7  1  0  0  0
  4  6  2  0  0  0
  4  5  1  0  0  0
  3  4  1  0  0  0
  2  3  2  0  0  0
  1  2  1  0  0  0
M  END
> <CAS>
4901-51-3

> <log P>
4.09

> <log M-1-LC50>
-0.25

$$$$
2,3,4-Trichloroaniline
  DSViewer          3D                             0

 10 10  0  0  0  0  0  0  0  0999 V2000
   -2.0529   -2.6531    0.5643 N   0  0  0  0  0  0  0  0  0  1
   -1.1195   -1.6166    0.6078 C   0  0  0  0  0  0  0  0  0  2
   -0.5646   -1.2678    1.7674 C   0  0  0  0  0  0  0  0  0  3
    0.4153   -0.1795    1.8121 C   0  0  0  0  0  0  0  0  0  4
    0.7507    0.4605    0.6931 C   0  0  0  0  0  0  0  0  0  5
    1.9059    1.7439    0.7444 Cl  0  0  0  0  0  0  0  0  0  6
    0.1403    0.0765   -0.5814 C   0  0  0  0  0  0  0  0  0  7
    0.5755    0.9067   -2.0323 Cl  0  0  0  0  0  0  0  0  0  8
   -0.7503   -0.9126   -0.6221 C   0  0  0  0  0  0  0  0  0  9
   -1.4700   -1.3651   -2.1257 Cl  0  0  0  0  0  0  0  0  0 10
  9 10  1  0  0  0
  9  2  1  0  0  0
  7  9  2  0  0  0
  7  8  1  0  0  0
  5  7  1  0  0  0
  5  6  1  0  0  0
  4  5  2  0  0  0
  3  4  1  0  0  0
  2  3  2  0  0  0
  1  2  1  0  0  0
M  END
> <CAS>
634-67-3

> <log P>
3.01

> <log M-1-LC50>
-1.27

$$$$
2,3,6-Trimethylphenol
  DSViewer          3D                             0

 10 10  0  0  0  0  0  0  0  0999 V2000
   -2.1919   -2.6202    0.5254 C   0  0  0  0  0  0  0  0  0  1
   -1.1466   -1.5419    0.5645 C   0  0  0  0  0  0  0  0  0  2
   -0.5937   -1.1965    1.7261 C   0  0  0  0  0  0  0  0  0  3
    0.4258   -0.1458    1.7692 C   0  0  0  0  0  0  0  0  0  4
    0.8006    0.4650    0.6465 C   0  0  0  0  0  0  0  0  0  5
    1.8449    1.5411    0.6906 C   0  0  0  0  0  0  0  0  0  6
    0.1943    0.0869   -0.6314 C   0  0  0  0  0  0  0  0  0  7
    0.5871    0.7258   -1.8023 O   0  0  0  0  0  0  0  0  0  8
   -0.7329   -0.8681   -0.6730 C   0  0  0  0  0  0  0  0  0  9
   -1.3520   -1.2523   -1.9869 C   0  0  0  0  0  0  0  0  0 10
  9 10  1  0  0  0
  9  2  1  0  0  0
  7  9  2  0  0  0
  7  8  1  0  0  0
  5  7  1  0  0  0
  5  6  1  0  0  0
  4  5  2  0  0  0
  3  4  1  0  0  0
  2  3  2  0  0  0
  1  2  1  0  0  0
M  END
> <CAS>
2416-94-6

> <log P>
3.15

> <log M-1-LC50>
-1.78

$$$$
2,4,5-Trichlorophenol
  DSViewer          3D                             0

 10 10  0  0  0  0  0  0  0  0999 V2000
   -2.7232   -1.8020    0.2776 O   0  0  0  0  0  0  0  0  0  1
   -1.5408   -1.0704    0.2689 C   0  0  0  0  0  0  0  0  0  2
   -0.7317   -1.1011    1.3264 C   0  0  0  0  0  0  0  0  0  3
   -1.1523   -2.0498    2.7074 Cl  0  0  0  0  0  0  0  0  0  4
    0.5142   -0.3309    1.3185 C   0  0  0  0  0  0  0  0  0  5
    0.8374    0.4002    0.2531 C   0  0  0  0  0  0  0  0  0  6
    2.3064    1.3092    0.2422 Cl  0  0  0  0  0  0  0  0  0  7
   -0.0525    0.4340   -0.9099 C   0  0  0  0  0  0  0  0  0  8
    0.3682    1.3828   -2.2909 Cl  0  0  0  0  0  0  0  0  0  9
   -1.1853   -0.2664   -0.9027 C   0  0  0  0  0  0  0  0  0 10
 10  2  1  0  0  0
  8 10  2  0  0  0
  8  9  1  0  0  0
  6  8  1  0  0  0
  6  7  1  0  0  0
  5  6  2  0  0  0
  3  5  1  0  0  0
  3  4  1  0  0  0
  2  3  2  0  0  0
  1  2  1  0  0  0
M  END
> <CAS>
95-95-4

> <log P>
3.45

> <log M-1-LC50>
-0.75

$$$$
2,4,6-Trichlorophenol
  DSViewer          3D                             0

 10 10  0  0  0  0  0  0  0  0999 V2000
   -1.3038    2.1935    1.6975 O   0  0  0  0  0  0  0  0  0  1
   -0.4289    1.4681    0.8965 C   0  0  0  0  0  0  0  0  0  2
    0.8419    1.3178    1.2653 C   0  0  0  0  0  0  0  0  0  3
    1.4021    2.0244    2.7387 Cl  0  0  0  0  0  0  0  0  0  4
    1.7639    0.5538    0.4219 C   0  0  0  0  0  0  0  0  0  5
    1.3309    0.0093   -0.7140 C   0  0  0  0  0  0  0  0  0  6
    2.4181   -0.8920   -1.7092 Cl  0  0  0  0  0  0  0  0  0  7
   -0.0671    0.1747   -1.1197 C   0  0  0  0  0  0  0  0  0  8
   -0.9050    0.8697   -0.3523 C   0  0  0  0  0  0  0  0  0  9
   -2.5537    1.0654   -0.8295 Cl  0  0  0  0  0  0  0  0  0 10
  9 10  1  0  0  0
  9  2  1  0  0  0
  8  9  2  0  0  0
  6  8  1  0  0  0
  6  7  1  0  0  0
  5  6  2  0  0  0
  3  5  1  0  0  0
  3  4  1  0  0  0
  2  3  2  0  0  0
  1  2  1  0  0  0
M  END
> <CAS>
88-06-2

> <log P>
3.45

> <log M-1-LC50>
-1.67

$$$$
2,4-Dichlorophenol
  DSViewer          3D                             0

  9  9  0  0  0  0  0  0  0  0999 V2000
   -1.4533    2.3291    1.4322 O   0  0  0  0  0  0  0  0  0  1
   -0.5517    1.5553    0.7097 C   0  0  0  0  0  0  0  0  0  2
    0.6511    1.2889    1.2157 C   0  0  0  0  0  0  0  0  0  3
    1.0896    1.9049    2.7689 Cl  0  0  0  0  0  0  0  0  0  4
    1.6018    0.4739    0.4556 C   0  0  0  0  0  0  0  0  0  5
    1.2628   -0.0007   -0.7419 C   0  0  0  0  0  0  0  0  0  6
    2.3838   -0.9620   -1.6388 Cl  0  0  0  0  0  0  0  0  0  7
   -0.0606    0.2923   -1.2989 C   0  0  0  0  0  0  0  0  0  8
   -0.9249    1.0334   -0.6075 C   0  0  0  0  0  0  0  0  0  9
  9  2  1  0  0  0
  8  9  2  0  0  0
  6  8  1  0  0  0
  6  7  1  0  0  0
  5  6  2  0  0  0
  3  5  1  0  0  0
  3  4  1  0  0  0
  2  3  2  0  0  0
  1  2  1  0  0  0
M  END
> <CAS>
120-83-2

> <log P>
2.8

> <log M-1-LC50>
-1.68

$$$$
2,4-Dimethylphenol
  DSViewer          3D                             0

  9  9  0  0  0  0  0  0  0  0999 V2000
   -0.8132    2.8636    1.6361 C   0  0  0  0  0  0  0  0  0  1
   -0.1908    1.7772    0.8092 C   0  0  0  0  0  0  0  0  0  2
    1.0452    1.3608    1.0790 C   0  0  0  0  0  0  0  0  0  3
    1.6527    0.3004    0.2719 C   0  0  0  0  0  0  0  0  0  4
    3.0452   -0.1687    0.5759 C   0  0  0  0  0  0  0  0  0  5
    0.9694   -0.2475   -0.7317 C   0  0  0  0  0  0  0  0  0  6
    1.5467   -1.2544   -1.4979 O   0  0  0  0  0  0  0  0  0  7
   -0.3902    0.2105   -1.0286 C   0  0  0  0  0  0  0  0  0  8
   -0.9430    1.1749   -0.2948 C   0  0  0  0  0  0  0  0  0  9
  9  2  1  0  0  0
  8  9  2  0  0  0
  6  8  1  0  0  0
  6  7  1  0  0  0
  4  6  2  0  0  0
  4  5  1  0  0  0
  3  4  1  0  0  0
  2  3  2  0  0  0
  1  2  1  0  0  0
M  END
> <CAS>
105-67-9

> <log P>
2.61

> <log M-1-LC50>
-2.13

$$$$
2-Allylphenol
  DSViewer          3D                             0

 10 10  0  0  0  0  0  0  0  0999 V2000
   -0.6976    2.0971   -0.6006 O   0  0  0  0  0  0  0  0  0  1
    0.6400    2.1343   -0.2173 C   0  0  0  0  0  0  0  0  0  2
    1.2010    3.3168    0.0306 C   0  0  0  0  0  0  0  0  0  3
    2.6097    3.4032    0.4099 C   0  0  0  0  0  0  0  0  0  4
    3.3464    2.2985    0.4956 C   0  0  0  0  0  0  0  0  0  5
    2.7488    0.9912    0.2206 C   0  0  0  0  0  0  0  0  0  6
    1.4612    0.8864   -0.1070 C   0  0  0  0  0  0  0  0  0  7
    0.9096   -0.5177   -0.3882 C   0  0  0  0  0  0  0  0  0  8
   -0.5687   -0.7092   -0.1169 C   0  0  0  0  0  0  0  0  0  9
   -1.0961   -0.3970    1.0681 C   0  0  0  0  0  0  0  0  0 10
  9 10  2  0  0  0
  8  9  1  0  0  0
  7  8  1  0  0  0
  7  2  1  0  0  0
  6  7  2  0  0  0
  5  6  1  0  0  0
  4  5  2  0  0  0
  3  4  1  0  0  0
  2  3  2  0  0  0
  1  2  1  0  0  0
M  END
> <CAS>
1745-81-9

> <log P>
2.91

> <log M-1-LC50>
-1.99

$$$$
2-Amino-5-bromopyridine
  DSViewer          3D                             0

  8  8  0  0  0  0  0  0  0  0999 V2000
   -1.3838    2.4604    1.5695 N   0  0  0  0  0  0  0  0  0  1
   -0.4777    1.6737    0.8566 C   0  0  0  0  0  0  0  0  0  2
    0.7690    1.5304    1.3043 C   0  0  0  0  0  0  0  0  0  3
    1.7082    0.7081    0.5548 C   0  0  0  0  0  0  0  0  0  4
    1.2943    0.1192   -0.5619 C   0  0  0  0  0  0  0  0  0  5
    2.4855   -0.9636   -1.5729 Br  0  0  0  0  0  0  0  0  0  6
   -0.0865    0.3112   -1.0069 C   0  0  0  0  0  0  0  0  0  7
   -0.8883    1.0364   -0.3319 N   0  0  0  0  0  0  0  0  0  8
  8  2  1  0  0  0
  7  8  2  0  0  0
  5  7  1  0  0  0
  5  6  1  0  0  0
  4  5  2  0  0  0
  3  4  1  0  0  0
  2  3  2  0  0  0
  1  2  1  0  0  0
M  END
> <CAS>
1072-97-5

> <log P>
1.42

> <log M-1-LC50>
-3.84

$$$$
2-Chloro-4-methylaniline
  DSViewer          3D                             0

  9  9  0  0  0  0  0  0  0  0999 V2000
   -0.8066    2.8834    1.6444 C   0  0  0  0  0  0  0  0  0  1
   -0.1996    1.7927    0.8116 C   0  0  0  0  0  0  0  0  0  2
    1.0326    1.3612    1.0754 C   0  0  0  0  0  0  0  0  0  3
    1.6248    0.2965    0.2624 C   0  0  0  0  0  0  0  0  0  4
    3.2227   -0.2638    0.6036 Cl  0  0  0  0  0  0  0  0  0  5
    0.9316   -0.2400   -0.7404 C   0  0  0  0  0  0  0  0  0  6
    1.4969   -1.2543   -1.5143 N   0  0  0  0  0  0  0  0  0  7
   -0.4238    0.2344   -1.0308 C   0  0  0  0  0  0  0  0  0  8
   -0.9626    1.2026   -0.2915 C   0  0  0  0  0  0  0  0  0  9
  9  2  1  0  0  0
  8  9  2  0  0  0
  6  8  1  0  0  0
  6  7  1  0  0  0
  4  6  2  0  0  0
  4  5  1  0  0  0
  3  4  1  0  0  0
  2  3  2  0  0  0
  1  2  1  0  0  0
M  END
> <CAS>
615-65-6

> <log P>
2.27

> <log M-1-LC50>
-2.4

$$$$
2-Chloro-4-nitroaniline
  DSViewer          3D                             0

 11 11  0  0  0  0  0  0  0  0999 V2000
    4.8168    0.4585    0.4450 N   0  0  0  0  0  0  0  0  0  1
    3.4345    0.3475    0.2886 C   0  0  0  0  0  0  0  0  0  2
    2.7670   -0.6086    0.9323 C   0  0  0  0  0  0  0  0  0  3
    3.6129   -1.7098    1.9598 Cl  0  0  0  0  0  0  0  0  0  4
    1.3168   -0.7261    0.7690 C   0  0  0  0  0  0  0  0  0  5
    0.6659    0.1236   -0.0235 C   0  0  0  0  0  0  0  0  0  6
    1.3992    1.1752   -0.7317 C   0  0  0  0  0  0  0  0  0  7
    2.7183    1.2820   -0.5831 C   0  0  0  0  0  0  0  0  0  8
   -0.7143    0.0121   -0.1792 N   0  3  0  0  0  0  0  0  0  9
   -1.3612    0.8571   -0.9673 O   0  5  0  0  0  0  0  0  0 10
   -1.3033   -0.8317    0.3889 O   0  0  0  0  0  0  0  0  0 11
  9 11  2  0  0  0
  9 10  1  0  0  0
  6  9  1  0  0  0
  8  2  1  0  0  0
  7  8  2  0  0  0
  6  7  1  0  0  0
  5  6  2  0  0  0
  3  5  1  0  0  0
  3  4  1  0  0  0
  2  3  2  0  0  0
  1  2  1  0  0  0
M  CHG  2   9   1  10  -1
M  END
> <CAS>
121-87-9

> <log P>
2.12

> <log M-1-LC50>
-2.07

$$$$
2-Chloroaniline
  DSViewer          3D                             0

  8  8  0  0  0  0  0  0  0  0999 V2000
   -1.1819    2.7841    0.5199 N   0  0  0  0  0  0  0  0  0  1
   -0.3726    1.6821    0.2401 C   0  0  0  0  0  0  0  0  0  2
    0.7464    1.4849    0.9350 C   0  0  0  0  0  0  0  0  0  3
    1.1945    2.5936    2.1818 Cl  0  0  0  0  0  0  0  0  0  4
    1.5969    0.3284    0.6421 C   0  0  0  0  0  0  0  0  0  5
    1.2506   -0.5260   -0.3195 C   0  0  0  0  0  0  0  0  0  6
    0.0193   -0.3091   -1.0841 C   0  0  0  0  0  0  0  0  0  7
   -0.7538    0.7426   -0.8176 C   0  0  0  0  0  0  0  0  0  8
  8  2  1  0  0  0
  7  8  2  0  0  0
  6  7  1  0  0  0
  5  6  2  0  0  0
  3  5  1  0  0  0
  3  4  1  0  0  0
  2  3  2  0  0  0
  1  2  1  0  0  0
M  END
> <CAS>
95-51-2

> <log P>
1.72

> <log M-1-LC50>
-1.65

$$$$
2-Chlorophenol
  DSViewer          3D                             0

  8  8  0  0  0  0  0  0  0  0999 V2000
   -1.1768    2.7819    0.5161 O   0  0  0  0  0  0  0  0  0  1
   -0.3713    1.6829    0.2383 C   0  0  0  0  0  0  0  0  0  2
    0.7474    1.4853    0.9337 C   0  0  0  0  0  0  0  0  0  3
    1.1961    2.5947    2.1797 Cl  0  0  0  0  0  0  0  0  0  4
    1.5970    0.3278    0.6420 C   0  0  0  0  0  0  0  0  0  5
    1.2503   -0.5271   -0.3190 C   0  0  0  0  0  0  0  0  0  6
    0.0193   -0.3097   -1.0841 C   0  0  0  0  0  0  0  0  0  7
   -0.7529    0.7428   -0.8187 C   0  0  0  0  0  0  0  0  0  8
  8  2  1  0  0  0
  7  8  2  0  0  0
  6  7  1  0  0  0
  5  6  2  0  0  0
  3  5  1  0  0  0
  3  4  1  0  0  0
  2  3  2  0  0  0
  1  2  1  0  0  0
M  END
> <CAS>
95-57-8

> <log P>
2.16

> <log M-1-LC50>
-1.95

$$$$
2-Cyanopyridine
  DSViewer          3D                             0

  8  8  0  0  0  0  0  0  0  0999 V2000
   -1.6585    3.9421    0.0697 N   0  0  0  0  0  0  0  0  0  1
   -1.0045    2.9951    0.0845 C   0  0  0  0  0  0  0  0  0  2
   -0.1961    1.8244    0.1029 C   0  0  0  0  0  0  0  0  0  3
    1.0468    1.9177    0.3709 N   0  0  0  0  0  0  0  0  0  4
    1.8783    0.7814    0.3983 C   0  0  0  0  0  0  0  0  0  5
    1.3815   -0.4276    0.1426 C   0  0  0  0  0  0  0  0  0  6
   -0.0345   -0.5668   -0.1669 C   0  0  0  0  0  0  0  0  0  7
   -0.7978    0.5209   -0.1863 C   0  0  0  0  0  0  0  0  0  8
  8  3  1  0  0  0
  7  8  2  0  0  0
  6  7  1  0  0  0
  5  6  2  0  0  0
  4  5  1  0  0  0
  3  4  2  0  0  0
  2  3  1  0  0  0
  1  2  3  0  0  0
M  END
> <CAS>
100-70-9

> <log P>
0.35

> <log M-1-LC50>
-3.84

$$$$
2-Methylphenol
  DSViewer          3D                             0

  8  8  0  0  0  0  0  0  0  0999 V2000
   -1.2004    2.9162    0.4742 C   0  0  0  0  0  0  0  0  0  1
   -0.3502    1.7013    0.2428 C   0  0  0  0  0  0  0  0  0  2
    0.7938    1.5523    0.9088 C   0  0  0  0  0  0  0  0  0  3
    1.2002    2.5225    1.8186 O   0  0  0  0  0  0  0  0  0  4
    1.6240    0.3663    0.6831 C   0  0  0  0  0  0  0  0  0  5
    1.2347   -0.5630   -0.1883 C   0  0  0  0  0  0  0  0  0  6
   -0.0239   -0.3989   -0.9210 C   0  0  0  0  0  0  0  0  0  7
   -0.7787    0.6794   -0.7157 C   0  0  0  0  0  0  0  0  0  8
  8  2  1  0  0  0
  7  8  2  0  0  0
  6  7  1  0  0  0
  5  6  2  0  0  0
  3  5  1  0  0  0
  3  4  1  0  0  0
  2  3  2  0  0  0
  1  2  1  0  0  0
M  END
> <CAS>
95-48-7

> <log P>
2.06

> <log M-1-LC50>
-2.11

$$$$
2-Phenylphenol
  DSViewer          3D                             0

 13 14  0  0  0  0  0  0  0  0999 V2000
    0.6109    4.1870   -0.5902 O   0  0  0  0  0  0  0  0  0  1
   -0.7064    3.7417   -0.5006 C   0  0  0  0  0  0  0  0  0  2
   -1.0204    2.4561   -0.2514 C   0  0  0  0  0  0  0  0  0  3
   -2.4368    2.0710   -0.1732 C   0  0  0  0  0  0  0  0  0  4
   -3.3995    2.9731   -0.3448 C   0  0  0  0  0  0  0  0  0  5
   -3.0556    4.3623   -0.6141 C   0  0  0  0  0  0  0  0  0  6
   -1.7784    4.7269   -0.6880 C   0  0  0  0  0  0  0  0  0  7
   -0.0063    1.3758   -0.0455 C   0  0  0  0  0  0  0  0  0  8
    1.3075    1.6032   -0.0930 C   0  0  0  0  0  0  0  0  0  9
    2.2594    0.5105    0.1155 C   0  0  0  0  0  0  0  0  0 10
    1.8172   -0.7219    0.3547 C   0  0  0  0  0  0  0  0  0 11
    0.3795   -0.9815    0.4088 C   0  0  0  0  0  0  0  0  0 12
   -0.4852    0.0133    0.2189 C   0  0  0  0  0  0  0  0  0 13
 13  8  1  0  0  0
 12 13  2  0  0  0
 11 12  1  0  0  0
 10 11  2  0  0  0
  9 10  1  0  0  0
  8  9  2  0  0  0
  3  8  1  0  0  0
  7  2  1  0  0  0
  6  7  2  0  0  0
  5  6  1  0  0  0
  4  5  2  0  0  0
  3  4  1  0  0  0
  2  3  2  0  0  0
  1  2  1  0  0  0
M  END
> <CAS>
90-43-7

> <log P>
3.28

> <log M-1-LC50>
-1.56

$$$$
3,4-Dichloroaniline
  DSViewer          3D                             0

  9  9  0  0  0  0  0  0  0  0999 V2000
   -0.8823    2.5950    1.8324 N   0  0  0  0  0  0  0  0  0  1
   -0.2694    1.7025    0.9517 C   0  0  0  0  0  0  0  0  0  2
    0.9620    1.2605    1.2016 C   0  0  0  0  0  0  0  0  0  3
    1.6049    0.3238    0.2770 C   0  0  0  0  0  0  0  0  0  4
    3.2020   -0.2503    0.5999 Cl  0  0  0  0  0  0  0  0  0  5
    0.9585   -0.0858   -0.8131 C   0  0  0  0  0  0  0  0  0  6
    1.7182   -1.1906   -1.9025 Cl  0  0  0  0  0  0  0  0  0  7
   -0.3960    0.4002   -1.0882 C   0  0  0  0  0  0  0  0  0  8
   -0.9808    1.2520   -0.2476 C   0  0  0  0  0  0  0  0  0  9
  9  2  1  0  0  0
  8  9  2  0  0  0
  6  8  1  0  0  0
  6  7  1  0  0  0
  4  6  2  0  0  0
  4  5  1  0  0  0
  3  4  1  0  0  0
  2  3  2  0  0  0
  1  2  1  0  0  0
M  END
> <CAS>
95-76-1

> <log P>
2.37

> <log M-1-LC50>
-1.67

$$$$
3-Benzyloxyaniline
  DSViewer          3D                             0

 15 16  0  0  0  0  0  0  0  0999 V2000
   -3.3903   -2.4721    0.2358 N   0  0  0  0  0  0  0  0  0  1
   -2.4569   -1.4961    0.5880 C   0  0  0  0  0  0  0  0  0  2
   -2.0951   -1.3511    1.8616 C   0  0  0  0  0  0  0  0  0  3
   -1.1172   -0.3278    2.2332 C   0  0  0  0  0  0  0  0  0  4
   -0.5877    0.4578    1.2975 C   0  0  0  0  0  0  0  0  0  5
   -0.9827    0.2982   -0.1156 C   0  0  0  0  0  0  0  0  0  6
   -0.4418    1.1235   -1.1355 O   0  0  0  0  0  0  0  0  0  7
    0.5334    2.0704   -0.6440 C   0  0  0  0  0  0  0  0  0  8
    1.9293    1.4716   -0.5897 C   0  0  0  0  0  0  0  0  0  9
    2.9235    2.1741   -0.0489 C   0  0  0  0  0  0  0  0  0 10
    4.2757    1.6129    0.0054 C   0  0  0  0  0  0  0  0  0 11
    4.5150    0.3995   -0.4894 C   0  0  0  0  0  0  0  0  0 12
    3.4262   -0.3746   -1.0896 C   0  0  0  0  0  0  0  0  0 13
    2.1966    0.1338   -1.1391 C   0  0  0  0  0  0  0  0  0 14
   -1.8766   -0.6330   -0.4439 C   0  0  0  0  0  0  0  0  0 15
 15  2  1  0  0  0
  6 15  2  0  0  0
 14  9  1  0  0  0
 13 14  2  0  0  0
 12 13  1  0  0  0
 11 12  2  0  0  0
 10 11  1  0  0  0
  9 10  2  0  0  0
  8  9  1  0  0  0
  7  8  1  0  0  0
  6  7  1  0  0  0
  5  6  1  0  0  0
  4  5  2  0  0  0
  3  4  1  0  0  0
  2  3  2  0  0  0
  1  2  1  0  0  0
M  END
> <CAS>
1484-26-0

> <log P>
2.86

> <log M-1-LC50>
-1.66

$$$$
3-Cyano-4,6-dimethyl-2-hydroxypyridine
  DSViewer          3D                             0

 11 11  0  0  0  0  0  0  0  0999 V2000
   -2.4324   -2.4488    0.2198 C   0  0  0  0  0  0  0  0  0  1
   -1.2800   -1.4897    0.1652 C   0  0  0  0  0  0  0  0  0  2
   -0.0863   -1.8635    0.6230 C   0  0  0  0  0  0  0  0  0  3
    1.0237   -0.9263    0.5639 C   0  0  0  0  0  0  0  0  0  4
    2.3793   -1.3238    1.0728 C   0  0  0  0  0  0  0  0  0  5
    0.8199    0.2835    0.0531 C   0  0  0  0  0  0  0  0  0  6
    1.8843    1.2263   -0.0222 C   0  0  0  0  0  0  0  0  0  7
    2.7446    1.9883   -0.0830 N   0  0  0  0  0  0  0  0  0  8
   -0.5114    0.6403   -0.4336 C   0  0  0  0  0  0  0  0  0  9
   -0.7344    1.9038   -0.9683 O   0  0  0  0  0  0  0  0  0 10
   -1.4681   -0.1997   -0.3705 N   0  0  0  0  0  0  0  0  0 11
 11  2  1  0  0  0
  9 11  2  0  0  0
  9 10  1  0  0  0
  6  9  1  0  0  0
  7  8  3  0  0  0
  6  7  1  0  0  0
  4  6  2  0  0  0
  4  5  1  0  0  0
  3  4  1  0  0  0
  2  3  2  0  0  0
  1  2  1  0  0  0
M  END
> <CAS>
769-28-8

> <log P>
2.27

> <log M-1-LC50>
-3.03

$$$$
3-Methoxyphenol
  DSViewer          3D                             0

  9  9  0  0  0  0  0  0  0  0999 V2000
   -2.7226    2.5209    0.4599 C   0  0  0  0  0  0  0  0  0  1
   -1.3619    2.9716    0.4047 O   0  0  0  0  0  0  0  0  0  2
   -0.4807    1.8967    0.2108 C   0  0  0  0  0  0  0  0  0  3
    0.8288    2.1288    0.1343 C   0  0  0  0  0  0  0  0  0  4
    1.7624    1.0178   -0.0680 C   0  0  0  0  0  0  0  0  0  5
    3.1288    1.2646   -0.1472 O   0  0  0  0  0  0  0  0  0  6
    1.3041   -0.2282   -0.1759 C   0  0  0  0  0  0  0  0  0  7
   -0.1342   -0.4899   -0.0927 C   0  0  0  0  0  0  0  0  0  8
   -0.9849    0.5187    0.0912 C   0  0  0  0  0  0  0  0  0  9
  9  3  1  0  0  0
  8  9  2  0  0  0
  7  8  1  0  0  0
  5  7  2  0  0  0
  5  6  1  0  0  0
  4  5  1  0  0  0
  3  4  2  0  0  0
  2  3  1  0  0  0
  1  2  1  0  0  0
M  END
> <CAS>
150-19-6

> <log P>
1.59

> <log M-1-LC50>
-2.78

$$$$
3-Trifluoromethyl-4-nitrophenol
  DSViewer          3D                             0

 14 14  0  0  0  0  0  0  0  0999 V2000
    5.0557   -0.1442    0.4777 O   0  0  0  0  0  0  0  0  0  1
    3.6752   -0.1757    0.3148 C   0  0  0  0  0  0  0  0  0  2
    3.0455   -1.3421    0.2144 C   0  0  0  0  0  0  0  0  0  3
    1.5956   -1.3834    0.0431 C   0  0  0  0  0  0  0  0  0  4
    0.8775   -0.2620   -0.0160 C   0  0  0  0  0  0  0  0  0  5
    1.5979    1.0647    0.0987 C   0  0  0  0  0  0  0  0  0  6
    2.9212    1.0717    0.2544 C   0  0  0  0  0  0  0  0  0  7
    0.8999    2.4022    0.0470 C   0  0  0  0  0  0  0  0  0  8
    1.8136    3.4276    0.1776 F   0  0  0  0  0  0  0  0  0  9
   -0.0383    2.4633    1.0565 F   0  0  0  0  0  0  0  0  0 10
    0.2208    2.5132   -1.1487 F   0  0  0  0  0  0  0  0  0 11
   -0.5352   -0.4136   -0.1854 N   0  3  0  0  0  0  0  0  0 12
   -1.3713    0.6064   -0.2606 O   0  5  0  0  0  0  0  0  0 13
   -0.9736   -1.5014   -0.2615 O   0  0  0  0  0  0  0  0  0 14
 12 14  2  0  0  0
 12 13  1  0  0  0
  5 12  1  0  0  0
  8 11  1  0  0  0
  8 10  1  0  0  0
  8  9  1  0  0  0
  6  8  1  0  0  0
  7  2  1  0  0  0
  6  7  2  0  0  0
  5  6  1  0  0  0
  4  5  2  0  0  0
  3  4  1  0  0  0
  2  3  2  0  0  0
  1  2  1  0  0  0
M  CHG  2  12   1  13  -1
M  END
> <CAS>
88-30-2

> <log P>
2.87

> <log M-1-LC50>
-1.64

$$$$
4-Acetylpyridine
  DSViewer          3D                             0

  9  9  0  0  0  0  0  0  0  0999 V2000
   -0.4316    4.2876    0.2243 C   0  0  0  0  0  0  0  0  0  1
   -1.0263    2.9206    0.0382 C   0  0  0  0  0  0  0  0  0  2
   -2.2412    2.7970   -0.1527 O   0  0  0  0  0  0  0  0  0  3
   -0.1717    1.7340    0.0821 C   0  0  0  0  0  0  0  0  0  4
    1.1365    1.8496    0.2864 C   0  0  0  0  0  0  0  0  0  5
    1.9616    0.6412    0.3244 C   0  0  0  0  0  0  0  0  0  6
    1.4344   -0.5085    0.1639 N   0  0  0  0  0  0  0  0  0  7
    0.0499   -0.6568   -0.0542 C   0  0  0  0  0  0  0  0  0  8
   -0.7464    0.4098   -0.0979 C   0  0  0  0  0  0  0  0  0  9
  9  4  1  0  0  0
  8  9  2  0  0  0
  7  8  1  0  0  0
  6  7  2  0  0  0
  5  6  1  0  0  0
  4  5  2  0  0  0
  2  4  1  0  0  0
  2  3  2  0  0  0
  1  2  1  0  0  0
M  END
> <CAS>
1122-54-9

> <log P>
0.49

> <log M-1-LC50>
-3.14

$$$$
4-Amino-2-nitrophenol
  DSViewer          3D                             0

 11 11  0  0  0  0  0  0  0  0999 V2000
    2.2528    4.1902    1.3935 N   0  0  0  0  0  0  0  0  0  1
    2.0233    3.0742    0.5876 C   0  0  0  0  0  0  0  0  0  2
    1.3026    2.0553    1.0514 C   0  0  0  0  0  0  0  0  0  3
    1.0585    0.8809    0.2095 C   0  0  0  0  0  0  0  0  0  4
    1.5623    0.8355   -1.0275 C   0  0  0  0  0  0  0  0  0  5
    1.3436   -0.2693   -1.8452 O   0  0  0  0  0  0  0  0  0  6
    2.3552    1.9590   -1.5345 C   0  0  0  0  0  0  0  0  0  7
    2.5745    3.0240   -0.7662 C   0  0  0  0  0  0  0  0  0  8
    0.2953   -0.1800    0.7222 N   0  3  0  0  0  0  0  0  0  9
   -0.1884   -0.1013    1.9522 O   0  5  0  0  0  0  0  0  0 10
    0.0810   -1.1361    0.0733 O   0  0  0  0  0  0  0  0  0 11
  9 11  2  0  0  0
  9 10  1  0  0  0
  4  9  1  0  0  0
  8  2  1  0  0  0
  7  8  2  0  0  0
  5  7  1  0  0  0
  5  6  1  0  0  0
  4  5  2  0  0  0
  3  4  1  0  0  0
  2  3  2  0  0  0
  1  2  1  0  0  0
M  CHG  2   9   1  10  -1
M  END
> <CAS>
119-34-6

> <log P>
0.64

> <log M-1-LC50>
-2.37

$$$$
4-Bromoaniline
  DSViewer          3D                             0

  8  8  0  0  0  0  0  0  0  0999 V2000
   -1.3505    2.5216    1.6007 N   0  0  0  0  0  0  0  0  0  1
   -0.4720    1.7128    0.8780 C   0  0  0  0  0  0  0  0  0  2
    0.7918    1.5794    1.2774 C   0  0  0  0  0  0  0  0  0  3
    1.7139    0.7304    0.5188 C   0  0  0  0  0  0  0  0  0  4
    1.2882    0.0920   -0.5702 C   0  0  0  0  0  0  0  0  0  5
    2.4846   -1.0095   -1.5543 Br  0  0  0  0  0  0  0  0  0  6
   -0.1021    0.2387   -1.0096 C   0  0  0  0  0  0  0  0  0  7
   -0.9404    1.0106   -0.3199 C   0  0  0  0  0  0  0  0  0  8
  8  2  1  0  0  0
  7  8  2  0  0  0
  5  7  1  0  0  0
  5  6  1  0  0  0
  4  5  2  0  0  0
  3  4  1  0  0  0
  2  3  2  0  0  0
  1  2  1  0  0  0
M  END
> <CAS>
106-40-1

> <log P>
1.97

> <log M-1-LC50>
-2.44

$$$$
4-Butylaniline
  DSViewer          3D                             0

 11 11  0  0  0  0  0  0  0  0999 V2000
   -3.5482    2.0380    2.2326 C   0  0  0  0  0  0  0  0  0  1
   -3.2331    2.6716    0.8629 C   0  0  0  0  0  0  0  0  0  2
   -2.0801    1.9048    0.1847 C   0  0  0  0  0  0  0  0  0  3
   -0.8127    1.9832    1.0616 C   0  0  0  0  0  0  0  0  0  4
    0.3187    1.2347    0.4096 C   0  0  0  0  0  0  0  0  0  5
    1.5069    1.1813    1.0089 C   0  0  0  0  0  0  0  0  0  6
    2.6132    0.4547    0.3811 C   0  0  0  0  0  0  0  0  0  7
    2.4319   -0.1536   -0.7900 C   0  0  0  0  0  0  0  0  0  8
    3.4866   -0.8456   -1.3873 N   0  0  0  0  0  0  0  0  0  9
    1.1260   -0.0966   -1.4513 C   0  0  0  0  0  0  0  0  0 10
    0.1196    0.5639   -0.8812 C   0  0  0  0  0  0  0  0  0 11
 11  5  1  0  0  0
 10 11  2  0  0  0
  8 10  1  0  0  0
  8  9  1  0  0  0
  7  8  2  0  0  0
  6  7  1  0  0  0
  5  6  2  0  0  0
  4  5  1  0  0  0
  3  4  1  0  0  0
  2  3  1  0  0  0
  1  2  1  0  0  0
M  END
> <CAS>
104-13-2

> <log P>
3.1

> <log M-1-LC50>
-1.83

$$$$
4-Chloro-3-methylphenol
  DSViewer          3D                             0

  9  9  0  0  0  0  0  0  0  0999 V2000
   -1.3470    3.1477    0.6628 C   0  0  0  0  0  0  0  0  0  1
   -0.4338    2.0044    0.3306 C   0  0  0  0  0  0  0  0  0  2
    0.8803    2.2044    0.2466 C   0  0  0  0  0  0  0  0  0  3
    1.7713    1.0877   -0.0778 C   0  0  0  0  0  0  0  0  0  4
    3.1434    1.2964   -0.1655 O   0  0  0  0  0  0  0  0  0  5
    1.2677   -0.1274   -0.2888 C   0  0  0  0  0  0  0  0  0  6
   -0.1778   -0.3471   -0.1964 C   0  0  0  0  0  0  0  0  0  7
   -0.9879    0.6683    0.0986 C   0  0  0  0  0  0  0  0  0  8
   -2.6927    0.4098    0.2077 Cl  0  0  0  0  0  0  0  0  0  9
  8  9  1  0  0  0
  8  2  1  0  0  0
  7  8  2  0  0  0
  6  7  1  0  0  0
  4  6  2  0  0  0
  4  5  1  0  0  0
  3  4  1  0  0  0
  2  3  2  0  0  0
  1  2  1  0  0  0
M  END
> <CAS>
59-50-7

> <log P>
2.7

> <log M-1-LC50>
-1.58

$$$$
4-Chloroaniline
  DSViewer          3D                             0

  8  8  0  0  0  0  0  0  0  0999 V2000
   -1.2831    2.6297    1.5090 N   0  0  0  0  0  0  0  0  0  1
   -0.4301    1.7616    0.8256 C   0  0  0  0  0  0  0  0  0  2
    0.8324    1.6169    1.2255 C   0  0  0  0  0  0  0  0  0  3
    1.7278    0.7057    0.5082 C   0  0  0  0  0  0  0  0  0  4
    1.2793    0.0222   -0.5436 C   0  0  0  0  0  0  0  0  0  5
    2.3353   -1.0523   -1.3895 Cl  0  0  0  0  0  0  0  0  0  6
   -0.1095    0.1814   -0.9835 C   0  0  0  0  0  0  0  0  0  7
   -0.9236    1.0098   -0.3314 C   0  0  0  0  0  0  0  0  0  8
  8  2  1  0  0  0
  7  8  2  0  0  0
  5  7  1  0  0  0
  5  6  1  0  0  0
  4  5  2  0  0  0
  3  4  1  0  0  0
  2  3  2  0  0  0
  1  2  1  0  0  0
M  END
> <CAS>
106-47-8

> <log P>
1.72

> <log M-1-LC50>
-2.39

$$$$
4-Chlorophenol
  DSViewer          3D                             0

  8  8  0  0  0  0  0  0  0  0999 V2000
   -1.2826    2.6260    1.5069 O   0  0  0  0  0  0  0  0  0  1
   -0.4322    1.7618    0.8255 C   0  0  0  0  0  0  0  0  0  2
    0.8304    1.6178    1.2249 C   0  0  0  0  0  0  0  0  0  3
    1.7263    0.7075    0.5071 C   0  0  0  0  0  0  0  0  0  4
    1.2779    0.0240   -0.5448 C   0  0  0  0  0  0  0  0  0  5
    2.3345   -1.0495   -1.3913 Cl  0  0  0  0  0  0  0  0  0  6
   -0.1111    0.1824   -0.9842 C   0  0  0  0  0  0  0  0  0  7
   -0.9255    1.0100   -0.3316 C   0  0  0  0  0  0  0  0  0  8
  8  2  1  0  0  0
  7  8  2  0  0  0
  5  7  1  0  0  0
  5  6  1  0  0  0
  4  5  2  0  0  0
  3  4  1  0  0  0
  2  3  2  0  0  0
  1  2  1  0  0  0
M  END
> <CAS>
106-48-9

> <log P>
2.16

> <log M-1-LC50>
-1.68

$$$$
4-Decylaniline
  DSViewer          3D                             0

 17 17  0  0  0  0  0  0  0  0999 V2000
    0.1898    2.0118   -3.1186 C   0  0  0  0  0  0  0  0  0  1
   -1.1027    1.1836   -3.3439 C   0  0  0  0  0  0  0  0  0  2
   -2.3582    2.0813   -3.6439 C   0  0  0  0  0  0  0  0  0  3
   -3.1928    2.6867   -2.4204 C   0  0  0  0  0  0  0  0  0  4
   -2.4751    3.6873   -1.4496 C   0  0  0  0  0  0  0  0  0  5
   -1.6721    2.9526   -0.3532 C   0  0  0  0  0  0  0  0  0  6
   -2.6227    2.1672    0.5735 C   0  0  0  0  0  0  0  0  0  7
   -1.7819    1.2837    1.5112 C   0  0  0  0  0  0  0  0  0  8
   -0.7499    2.1480    2.2861 C   0  0  0  0  0  0  0  0  0  9
    0.1860    1.2472    3.1393 C   0  0  0  0  0  0  0  0  0 10
    1.1560    0.4244    2.2936 C   0  0  0  0  0  0  0  0  0 11
    1.8266   -0.5774    2.8704 C   0  0  0  0  0  0  0  0  0 12
    2.7664   -1.3820    2.0847 C   0  0  0  0  0  0  0  0  0 13
    2.9633   -1.1177    0.7965 C   0  0  0  0  0  0  0  0  0 14
    3.8565   -1.8900    0.0516 N   0  0  0  0  0  0  0  0  0 15
    2.2450   -0.0142    0.1568 C   0  0  0  0  0  0  0  0  0 16
    1.3912    0.7193    0.8656 C   0  0  0  0  0  0  0  0  0 17
 17 11  1  0  0  0
 16 17  2  0  0  0
 14 16  1  0  0  0
 14 15  1  0  0  0
 13 14  2  0  0  0
 12 13  1  0  0  0
 11 12  2  0  0  0
 10 11  1  0  0  0
  9 10  1  0  0  0
  8  9  1  0  0  0
  7  8  1  0  0  0
  6  7  1  0  0  0
  5  6  1  0  0  0
  4  5  1  0  0  0
  3  4  1  0  0  0
  2  3  1  0  0  0
  1  2  1  0  0  0
M  END
> <CAS>
37529-30-9

> <log P>
6.04

> <log M-1-LC50>
0.58

$$$$
4-Ethoxy-2-nitroaniline
  DSViewer          3D                             0

 13 13  0  0  0  0  0  0  0  0999 V2000
    1.3983    3.7961    1.5865 C   0  0  0  0  0  0  0  0  0  1
    2.2610    3.5122    0.3243 C   0  0  0  0  0  0  0  0  0  2
    3.1955    2.4353    0.5680 O   0  0  0  0  0  0  0  0  0  3
    2.6490    1.1390    0.3778 C   0  0  0  0  0  0  0  0  0  4
    3.4214    0.0785    0.6087 C   0  0  0  0  0  0  0  0  0  5
    2.8993   -1.2756    0.4129 C   0  0  0  0  0  0  0  0  0  6
    1.6482   -1.4584   -0.0044 C   0  0  0  0  0  0  0  0  0  7
    1.1637   -2.7552   -0.1874 N   0  0  0  0  0  0  0  0  0  8
    0.7884   -0.2967   -0.2703 C   0  0  0  0  0  0  0  0  0  9
    1.2634    0.9338   -0.0900 C   0  0  0  0  0  0  0  0  0 10
   -0.5279   -0.4674   -0.7124 N   0  3  0  0  0  0  0  0  0 11
   -1.2846    0.5940   -0.9452 O   0  5  0  0  0  0  0  0  0 12
   -0.9661   -1.5452   -0.8781 O   0  0  0  0  0  0  0  0  0 13
 11 13  2  0  0  0
 11 12  1  0  0  0
  9 11  1  0  0  0
 10  4  1  0  0  0
  9 10  2  0  0  0
  7  9  1  0  0  0
  7  8  1  0  0  0
  6  7  2  0  0  0
  5  6  1  0  0  0
  4  5  2  0  0  0
  3  4  1  0  0  0
  2  3  1  0  0  0
  1  2  1  0  0  0
M  CHG  2  11   1  12  -1
M  END
> <CAS>
616-86-4

> <log P>
2.59

> <log M-1-LC50>
-2.15

$$$$
4-Ethylaniline
  DSViewer          3D                             0

  9  9  0  0  0  0  0  0  0  0999 V2000
   -2.5072    2.8554    0.4014 C   0  0  0  0  0  0  0  0  0  1
   -1.1591    2.8336    1.1496 C   0  0  0  0  0  0  0  0  0  2
   -0.2654    1.7601    0.5854 C   0  0  0  0  0  0  0  0  0  3
    0.9508    1.5771    1.0969 C   0  0  0  0  0  0  0  0  0  4
    1.8260    0.5354    0.5540 C   0  0  0  0  0  0  0  0  0  5
    1.4066   -0.2303   -0.4521 C   0  0  0  0  0  0  0  0  0  6
    2.2414   -1.2225   -0.9685 N   0  0  0  0  0  0  0  0  0  7
    0.0697   -0.0315   -1.0166 C   0  0  0  0  0  0  0  0  0  8
   -0.7270    0.9155   -0.5237 C   0  0  0  0  0  0  0  0  0  9
  9  3  1  0  0  0
  8  9  2  0  0  0
  6  8  1  0  0  0
  6  7  1  0  0  0
  5  6  2  0  0  0
  4  5  1  0  0  0
  3  4  2  0  0  0
  2  3  1  0  0  0
  1  2  1  0  0  0
M  END
> <CAS>
589-16-2

> <log P>
2.11

> <log M-1-LC50>
-2.78

$$$$
4-Methoxyphenol
  DSViewer          3D                             0

  9  9  0  0  0  0  0  0  0  0999 V2000
   -2.3897    2.8046    0.4379 C   0  0  0  0  0  0  0  0  0  1
   -1.1297    2.7640    1.1221 O   0  0  0  0  0  0  0  0  0  2
   -0.2958    1.7698    0.5876 C   0  0  0  0  0  0  0  0  0  3
    0.9195    1.5880    1.1019 C   0  0  0  0  0  0  0  0  0  4
    1.8026    0.5545    0.5555 C   0  0  0  0  0  0  0  0  0  5
    1.3924   -0.2067   -0.4577 C   0  0  0  0  0  0  0  0  0  6
    2.2324   -1.1871   -0.9748 O   0  0  0  0  0  0  0  0  0  7
    0.0576   -0.0117   -1.0275 C   0  0  0  0  0  0  0  0  0  8
   -0.7471    0.9273   -0.5324 C   0  0  0  0  0  0  0  0  0  9
  9  3  1  0  0  0
  8  9  2  0  0  0
  6  8  1  0  0  0
  6  7  1  0  0  0
  5  6  2  0  0  0
  4  5  1  0  0  0
  3  4  2  0  0  0
  2  3  1  0  0  0
  1  2  1  0  0  0
M  END
> <CAS>
150-76-5

> <log P>
1.59

> <log M-1-LC50>
-2.95

$$$$
4-Methylaniline
  DSViewer          3D                             0

  8  8  0  0  0  0  0  0  0  0999 V2000
   -1.2153    2.8901    1.3290 C   0  0  0  0  0  0  0  0  0  1
   -0.3496    1.8381    0.6997 C   0  0  0  0  0  0  0  0  0  2
    0.9057    1.6735    1.1140 C   0  0  0  0  0  0  0  0  0  3
    1.7508    0.6465    0.4997 C   0  0  0  0  0  0  0  0  0  4
    1.2638   -0.1224   -0.4730 C   0  0  0  0  0  0  0  0  0  5
    2.0690   -1.1007   -1.0583 N   0  0  0  0  0  0  0  0  0  6
   -0.1171    0.0588   -0.9288 C   0  0  0  0  0  0  0  0  0  7
   -0.8855    0.9924   -0.3703 C   0  0  0  0  0  0  0  0  0  8
  8  2  1  0  0  0
  7  8  2  0  0  0
  5  7  1  0  0  0
  5  6  1  0  0  0
  4  5  2  0  0  0
  3  4  1  0  0  0
  2  3  2  0  0  0
  1  2  1  0  0  0
M  END
> <CAS>
106-49-0

> <log P>
1.62

> <log M-1-LC50>
-3.17

$$$$
4-Nitrobenzamide
  DSViewer          3D                             0

 12 12  0  0  0  0  0  0  0  0999 V2000
    5.6208   -0.8875    0.2368 N   0  0  0  0  0  0  0  0  0  1
    4.8452    0.2628    0.0839 C   0  0  0  0  0  0  0  0  0  2
    5.3904    1.3644   -0.0459 O   0  0  0  0  0  0  0  0  0  3
    3.3889    0.1647    0.0773 C   0  0  0  0  0  0  0  0  0  4
    2.8015   -1.0224    0.2173 C   0  0  0  0  0  0  0  0  0  5
    1.3410   -1.1207    0.2107 C   0  0  0  0  0  0  0  0  0  6
    0.6010   -0.0230    0.0648 C   0  0  0  0  0  0  0  0  0  7
    1.2469    1.2825   -0.0891 C   0  0  0  0  0  0  0  0  0  8
    2.5755    1.3719   -0.0831 C   0  0  0  0  0  0  0  0  0  9
   -0.7893   -0.1163    0.0585 N   0  3  0  0  0  0  0  0  0 10
   -1.5246    0.9754   -0.0866 O   0  5  0  0  0  0  0  0  0 11
   -1.3084   -1.1637    0.1819 O   0  0  0  0  0  0  0  0  0 12
 10 12  2  0  0  0
 10 11  1  0  0  0
  7 10  1  0  0  0
  9  4  1  0  0  0
  8  9  2  0  0  0
  7  8  1  0  0  0
  6  7  2  0  0  0
  5  6  1  0  0  0
  4  5  2  0  0  0
  2  4  1  0  0  0
  2  3  2  0  0  0
  1  2  1  0  0  0
M  CHG  2  10   1  11  -1
M  END
> <CAS>
619-80-7

> <log P>
0.56

> <log M-1-LC50>
-2.9

$$$$
4-Nitrophenol
  DSViewer          3D                             0

 10 10  0  0  0  0  0  0  0  0999 V2000
    4.9936    0.1671    0.1884 O   0  0  0  0  0  0  0  0  0  1
    3.6047    0.1067    0.1484 C   0  0  0  0  0  0  0  0  0  2
    2.9837   -1.0585    0.3246 C   0  0  0  0  0  0  0  0  0  3
    1.5212   -1.1220    0.2824 C   0  0  0  0  0  0  0  0  0  4
    0.8130   -0.0146    0.0679 C   0  0  0  0  0  0  0  0  0  5
    1.4952    1.2668   -0.1259 C   0  0  0  0  0  0  0  0  0  6
    2.8252    1.3249   -0.0876 C   0  0  0  0  0  0  0  0  0  7
   -0.5786   -0.0749    0.0277 N   0  3  0  0  0  0  0  0  0  8
   -1.2823    1.0264   -0.1856 O   0  5  0  0  0  0  0  0  0  9
   -1.1268   -1.1030    0.1831 O   0  0  0  0  0  0  0  0  0 10
  8 10  2  0  0  0
  8  9  1  0  0  0
  5  8  1  0  0  0
  7  2  1  0  0  0
  6  7  2  0  0  0
  5  6  1  0  0  0
  4  5  2  0  0  0
  3  4  1  0  0  0
  2  3  2  0  0  0
  1  2  1  0  0  0
M  CHG  2   8   1   9  -1
M  END
> <CAS>
100-02-7

> <log P>
1.91

> <log M-1-LC50>
-2.51

$$$$
4-Phenoxyphenol
  DSViewer          3D                             0

 14 15  0  0  0  0  0  0  0  0999 V2000
   -2.7536    1.8239    1.8248 O   0  0  0  0  0  0  0  0  0  1
   -1.5986    1.5088    1.1169 C   0  0  0  0  0  0  0  0  0  2
   -0.4808    1.1998    1.7676 C   0  0  0  0  0  0  0  0  0  3
    0.7339    0.8684    1.0206 C   0  0  0  0  0  0  0  0  0  4
    0.7425    0.8700   -0.3158 C   0  0  0  0  0  0  0  0  0  5
    1.8954    0.5558   -1.1471 O   0  0  0  0  0  0  0  0  0  6
    3.2138    0.1921   -0.6382 C   0  0  0  0  0  0  0  0  0  7
    4.1520   -0.0629   -1.5516 C   0  0  0  0  0  0  0  0  0  8
    5.5124   -0.4378   -1.1550 C   0  0  0  0  0  0  0  0  0  9
    5.8335   -0.5298    0.1327 C   0  0  0  0  0  0  0  0  0 10
    4.8269   -0.2564    1.1523 C   0  0  0  0  0  0  0  0  0 11
    3.5905    0.0843    0.7947 C   0  0  0  0  0  0  0  0  0 12
   -0.5031    1.2142   -1.0186 C   0  0  0  0  0  0  0  0  0 13
   -1.6096    1.5162   -0.3416 C   0  0  0  0  0  0  0  0  0 14
 14  2  1  0  0  0
 13 14  2  0  0  0
  5 13  1  0  0  0
 12  7  1  0  0  0
 11 12  2  0  0  0
 10 11  1  0  0  0
  9 10  2  0  0  0
  8  9  1  0  0  0
  7  8  2  0  0  0
  6  7  1  0  0  0
  5  6  1  0  0  0
  4  5  2  0  0  0
  3  4  1  0  0  0
  2  3  2  0  0  0
  1  2  1  0  0  0
M  END
> <CAS>
831-82-3

> <log P>
3.57

> <log M-1-LC50>
-1.42

$$$$
4-Picoline
  DSViewer          3D                             0

  7  7  0  0  0  0  0  0  0  0999 V2000
   -1.0797    3.1869    0.1269 C   0  0  0  0  0  0  0  0  0  1
   -0.2453    1.9398    0.1255 C   0  0  0  0  0  0  0  0  0  2
    1.0528    1.9988    0.4028 C   0  0  0  0  0  0  0  0  0  3
    1.8404    0.7645    0.3935 C   0  0  0  0  0  0  0  0  0  4
    1.2900   -0.3534    0.1232 N   0  0  0  0  0  0  0  0  0  5
   -0.0852   -0.4416   -0.1742 C   0  0  0  0  0  0  0  0  0  6
   -0.8477    0.6505   -0.1796 C   0  0  0  0  0  0  0  0  0  7
  7  2  1  0  0  0
  6  7  2  0  0  0
  5  6  1  0  0  0
  4  5  2  0  0  0
  3  4  1  0  0  0
  2  3  2  0  0  0
  1  2  1  0  0  0
M  END
> <CAS>
108-89-4

> <log P>
1.35

> <log M-1-LC50>
-3.64

$$$$
4-tert-Butylphenol
  DSViewer          3D                             0

 11 11  0  0  0  0  0  0  0  0999 V2000
   -0.2161    4.1314    0.9932 C   0  0  0  0  0  0  0  0  0  1
   -1.0380    2.9507    0.4367 C   0  0  0  0  0  0  0  0  0  2
   -1.8014    3.3406   -0.8434 C   0  0  0  0  0  0  0  0  0  3
   -2.0942    2.5382    1.4777 C   0  0  0  0  0  0  0  0  0  4
   -0.1627    1.7539    0.1649 C   0  0  0  0  0  0  0  0  0  5
    1.0595    1.6821    0.6919 C   0  0  0  0  0  0  0  0  0  6
    1.9050    0.5163    0.4275 C   0  0  0  0  0  0  0  0  0  7
    1.4528   -0.4745   -0.3392 C   0  0  0  0  0  0  0  0  0  8
    2.2562   -1.5816   -0.5899 O   0  0  0  0  0  0  0  0  0  9
    0.1097   -0.3986   -0.9181 C   0  0  0  0  0  0  0  0  0 10
   -0.6596    0.6618   -0.6784 C   0  0  0  0  0  0  0  0  0 11
 11  5  1  0  0  0
 10 11  2  0  0  0
  8 10  1  0  0  0
  8  9  1  0  0  0
  7  8  2  0  0  0
  6  7  1  0  0  0
  5  6  2  0  0  0
  2  5  1  0  0  0
  2  4  1  0  0  0
  2  3  1  0  0  0
  1  2  1  0  0  0
M  END
> <CAS>
98-54-4

> <log P>
3.42

> <log M-1-LC50>
-1.54

$$$$
4-ter-Pentylphenol
  DSViewer          3D                             0

 12 12  0  0  0  0  0  0  0  0999 V2000
   -1.0674    5.3489    0.6756 C   0  0  0  0  0  0  0  0  0  1
   -0.1587    4.1208    0.4586 C   0  0  0  0  0  0  0  0  0  2
   -1.0171    2.8531    0.2296 C   0  0  0  0  0  0  0  0  0  3
   -1.9558    3.0006   -0.9858 C   0  0  0  0  0  0  0  0  0  4
   -1.8921    2.6208    1.4771 C   0  0  0  0  0  0  0  0  0  5
   -0.1351    1.6436    0.0549 C   0  0  0  0  0  0  0  0  0  6
    1.0792    1.6158    0.6038 C   0  0  0  0  0  0  0  0  0  7
    1.9333    0.4386    0.4363 C   0  0  0  0  0  0  0  0  0  8
    1.4968   -0.6070   -0.2638 C   0  0  0  0  0  0  0  0  0  9
    2.3085   -1.7250   -0.4226 O   0  0  0  0  0  0  0  0  0 10
    0.1622   -0.5798   -0.8664 C   0  0  0  0  0  0  0  0  0 11
   -0.6149    0.4910   -0.7147 C   0  0  0  0  0  0  0  0  0 12
 12  6  1  0  0  0
 11 12  2  0  0  0
  9 11  1  0  0  0
  9 10  1  0  0  0
  8  9  2  0  0  0
  7  8  1  0  0  0
  6  7  2  0  0  0
  3  6  1  0  0  0
  3  5  1  0  0  0
  3  4  1  0  0  0
  2  3  1  0  0  0
  1  2  1  0  0  0
M  END
> <CAS>
80-46-6

> <log P>
3.91

> <log M-1-LC50>
-1.2

$$$$
6-Chloro-2-pyridinol
  DSViewer          3D                             0

  9  9  0  0  0  0  0  0  0  0999 V2000
   -2.3625    2.4685    0.6195 H   0  0  0  0  0  0  0  0  0  1
   -1.4585    2.8528    0.4997 O   0  0  0  0  0  0  0  0  0  2
   -0.5504    1.8296    0.2571 C   0  0  0  0  0  0  0  0  0  3
    0.6803    2.1055    0.0726 N   0  0  0  0  0  0  0  0  0  4
    1.6302    1.0957   -0.1760 C   0  0  0  0  0  0  0  0  0  5
    3.2876    1.5183   -0.4201 Cl  0  0  0  0  0  0  0  0  0  6
    1.2594   -0.1828   -0.2242 C   0  0  0  0  0  0  0  0  0  7
   -0.1391   -0.5301   -0.0175 C   0  0  0  0  0  0  0  0  0  8
   -1.0146    0.4419    0.2152 C   0  0  0  0  0  0  0  0  0  9
  9  3  1  0  0  0
  8  9  2  0  0  0
  7  8  1  0  0  0
  5  7  2  0  0  0
  5  6  1  0  0  0
  4  5  1  0  0  0
  3  4  2  0  0  0
  2  3  1  0  0  0
  1  2  1  0  0  0
M  END
> <CAS>
16879-02-0

> <log P>
1.72

> <log M-1-LC50>
-3.22

$$$$
Aniline
  DSViewer          3D                             0

  7  7  0  0  0  0  0  0  0  0999 V2000
   -1.0288    3.1166    0.1342 N   0  0  0  0  0  0  0  0  0  1
   -0.2538    1.9558    0.1292 C   0  0  0  0  0  0  0  0  0  2
    1.0486    2.0235    0.4010 C   0  0  0  0  0  0  0  0  0  3
    1.8624    0.8049    0.3957 C   0  0  0  0  0  0  0  0  0  4
    1.2997   -0.3706    0.1192 C   0  0  0  0  0  0  0  0  0  5
   -0.1332   -0.4450   -0.1798 C   0  0  0  0  0  0  0  0  0  6
   -0.8729    0.6628   -0.1751 C   0  0  0  0  0  0  0  0  0  7
  7  2  1  0  0  0
  6  7  2  0  0  0
  5  6  1  0  0  0
  4  5  2  0  0  0
  3  4  1  0  0  0
  2  3  2  0  0  0
  1  2  1  0  0  0
M  END
> <CAS>
62-53-3

> <log P>
1.08

> <log M-1-LC50>
-3.05

$$$$
Catechol
  DSViewer          3D                             0

  8  8  0  0  0  0  0  0  0  0999 V2000
   -1.1510    2.8319    0.4804 O   0  0  0  0  0  0  0  0  0  1
   -0.3606    1.7108    0.2524 C   0  0  0  0  0  0  0  0  0  2
    0.7877    1.5613    0.9106 C   0  0  0  0  0  0  0  0  0  3
    1.1948    2.5265    1.8251 O   0  0  0  0  0  0  0  0  0  4
    1.6214    0.3805    0.6712 C   0  0  0  0  0  0  0  0  0  5
    1.2307   -0.5436   -0.2050 C   0  0  0  0  0  0  0  0  0  6
   -0.0327   -0.3792   -0.9293 C   0  0  0  0  0  0  0  0  0  7
   -0.7906    0.6945   -0.7115 C   0  0  0  0  0  0  0  0  0  8
  8  2  1  0  0  0
  7  8  2  0  0  0
  6  7  1  0  0  0
  5  6  2  0  0  0
  3  5  1  0  0  0
  3  4  1  0  0  0
  2  3  2  0  0  0
  1  2  1  0  0  0
M  END
> <CAS>
120-80-9

> <log P>
1.03

> <log M-1-LC50>
-1.92

$$$$
